protac3895RUN2
  chem.cr 07102519423D
protac3895RUN2
 90 96  0  0  0  0  0  0  0  0999 V2000
   -1.1524   -0.5182    3.4669 O   0  0  0  0  0  0  0  0  0  0  0  0
   -2.1973   -0.8640    2.9324 C   0  0  0  0  0  0  0  0  0  0  0  0
   -2.8363   -2.2121    3.1583 C   0  0  0  0  0  0  0  0  0  0  0  0
   -4.3047   -2.1616    3.2621 N   0  0  0  0  0  0  0  0  0  0  0  0
   -4.9213   -1.5467    4.3531 C   0  0  0  0  0  0  0  0  0  0  0  0
   -6.1776   -1.1569    4.0432 C   0  0  0  0  0  0  0  0  0  0  0  0
   -7.1277   -0.6541    4.8932 C   0  0  0  0  0  0  0  0  0  0  0  0
   -6.9146   -0.2046    6.1517 C   0  0  0  0  0  0  0  0  0  0  0  0
   -5.6889   -0.0818    6.7780 C   0  0  0  0  0  0  0  0  0  0  0  0
   -4.8053    0.9311    6.3560 C   0  0  0  0  0  0  0  0  0  0  0  0
   -3.5313    1.0501    6.9352 C   0  0  0  0  0  0  0  0  0  0  0  0
   -3.1397    0.1656    7.9515 C   0  0  0  0  0  0  0  0  0  0  0  0
   -1.5429    0.3114    8.6718 Cl  0  0  0  0  0  0  0  0  0  0  0  0
   -4.0189   -0.8379    8.3902 C   0  0  0  0  0  0  0  0  0  0  0  0
   -5.2905   -0.9664    7.8044 C   0  0  0  0  0  0  0  0  0  0  0  0
   -6.3507   -2.2700    8.3404 Cl  0  0  0  0  0  0  0  0  0  0  0  0
   -8.0481    0.1780    6.7415 C   0  0  0  0  0  0  0  0  0  0  0  0
   -8.3088    0.6383    7.8444 O   0  0  0  0  0  0  0  0  0  0  0  0
   -9.0807    0.0014    5.8397 N   0  0  0  0  0  0  0  0  0  0  0  0
   -8.4700   -0.5534    4.7156 C   0  0  0  0  0  0  0  0  0  0  0  0
   -9.2473   -0.9318    3.8512 O   0  0  0  0  0  0  0  0  0  0  0  0
   -6.3162   -1.4259    2.6689 C   0  0  0  0  0  0  0  0  0  0  0  0
   -7.2451   -0.9641    1.7124 C   0  0  0  0  0  0  0  0  0  0  0  0
   -7.0674   -1.2978    0.3523 C   0  0  0  0  0  0  0  0  0  0  0  0
   -5.9378   -2.0280   -0.0731 C   0  0  0  0  0  0  0  0  0  0  0  0
   -4.9507   -2.3972    0.8560 C   0  0  0  0  0  0  0  0  0  0  0  0
   -5.1661   -2.0723    2.2030 C   0  0  0  0  0  0  0  0  0  0  0  0
   -2.6633   -0.1511    1.8203 N   0  0  0  0  0  0  0  0  0  0  0  0
   -1.7530    0.3406    0.7748 C   0  0  0  0  0  0  0  0  0  0  0  0
   -1.7594   -0.5867   -0.4646 C   0  0  0  0  0  0  0  0  0  0  0  0
   -1.4470   -1.9434   -0.0797 O   0  0  0  0  0  0  0  0  0  0  0  0
   -0.1384   -2.2165    0.4705 C   0  0  0  0  0  0  0  0  0  0  0  0
    0.9559   -2.0259   -0.6007 C   0  0  0  0  0  0  0  0  0  0  0  0
    1.3453   -0.6441   -0.6312 O   0  0  0  0  0  0  0  0  0  0  0  0
    2.4849   -0.3812   -1.4537 C   0  0  0  0  0  0  0  0  0  0  0  0
    2.7606    1.1312   -1.4251 C   0  0  0  0  0  0  0  0  0  0  0  0
    4.0410    1.3838   -2.1003 N   0  0  0  0  0  0  0  0  0  0  0  0
    4.2977    2.4160   -2.9920 C   0  0  0  0  0  0  0  0  0  0  0  0
    3.5851    3.6371   -3.0003 C   0  0  0  0  0  0  0  0  0  0  0  0
    3.9007    4.6553   -3.9364 C   0  0  0  0  0  0  0  0  0  0  0  0
    4.9300    4.4686   -4.8839 C   0  0  0  0  0  0  0  0  0  0  0  0
    5.6242    3.2530   -4.8648 C   0  0  0  0  0  0  0  0  0  0  0  0
    5.3176    2.2591   -3.9373 C   0  0  0  0  0  0  0  0  0  0  0  0
    6.1520    1.1927   -4.1731 C   0  0  0  0  0  0  0  0  0  0  0  0
    6.2407    0.1365   -3.5556 O   0  0  0  0  0  0  0  0  0  0  0  0
    6.9974    1.5090   -5.2374 N   0  0  0  0  0  0  0  0  0  0  0  0
    7.7197    0.5058   -6.0422 C   0  0  0  0  0  0  0  0  0  0  0  0
    9.2407    0.7351   -5.9362 C   0  0  0  0  0  0  0  0  0  0  0  0
    9.9795   -0.2942   -6.8174 C   0  0  0  0  0  0  0  0  0  0  0  0
    9.4764   -0.2714   -8.2441 C   0  0  0  0  0  0  0  0  0  0  0  0
   10.1426   -0.6495   -9.1956 O   0  0  0  0  0  0  0  0  0  0  0  0
    8.1175   -0.0256   -8.4770 N   0  0  0  0  0  0  0  0  0  0  0  0
    7.2438    0.4576   -7.4914 C   0  0  0  0  0  0  0  0  0  0  0  0
    6.0687    0.5466   -7.8224 O   0  0  0  0  0  0  0  0  0  0  0  0
    6.6434    2.7951   -5.6713 C   0  0  0  0  0  0  0  0  0  0  0  0
    7.3480    3.4424   -6.4369 O   0  0  0  0  0  0  0  0  0  0  0  0
   -2.5568   -2.8795    2.3362 H   0  0  0  0  0  0  0  0  0  0  0  0
   -2.4320   -2.6431    4.0806 H   0  0  0  0  0  0  0  0  0  0  0  0
   -4.3913   -1.5476    5.3007 H   0  0  0  0  0  0  0  0  0  0  0  0
   -5.1050    1.6145    5.5653 H   0  0  0  0  0  0  0  0  0  0  0  0
   -2.8482    1.8244    6.5956 H   0  0  0  0  0  0  0  0  0  0  0  0
   -3.7119   -1.5200    9.1780 H   0  0  0  0  0  0  0  0  0  0  0  0
  -10.0285   -0.2069    6.1106 H   0  0  0  0  0  0  0  0  0  0  0  0
   -8.0649   -0.3102    1.9734 H   0  0  0  0  0  0  0  0  0  0  0  0
   -7.7979   -0.9616   -0.3793 H   0  0  0  0  0  0  0  0  0  0  0  0
   -5.8078   -2.2644   -1.1260 H   0  0  0  0  0  0  0  0  0  0  0  0
   -4.0420   -2.8957    0.5306 H   0  0  0  0  0  0  0  0  0  0  0  0
   -3.6267   -0.3290    1.5552 H   0  0  0  0  0  0  0  0  0  0  0  0
   -0.7324    0.4306    1.1711 H   0  0  0  0  0  0  0  0  0  0  0  0
   -2.0723    1.3467    0.4741 H   0  0  0  0  0  0  0  0  0  0  0  0
   -1.0533   -0.2146   -1.2171 H   0  0  0  0  0  0  0  0  0  0  0  0
   -2.7587   -0.5604   -0.9176 H   0  0  0  0  0  0  0  0  0  0  0  0
   -0.1051   -3.2595    0.8087 H   0  0  0  0  0  0  0  0  0  0  0  0
    0.0807   -1.5915    1.3449 H   0  0  0  0  0  0  0  0  0  0  0  0
    0.5838   -2.3561   -1.5795 H   0  0  0  0  0  0  0  0  0  0  0  0
    1.8158   -2.6538   -0.3329 H   0  0  0  0  0  0  0  0  0  0  0  0
    3.3598   -0.9234   -1.0706 H   0  0  0  0  0  0  0  0  0  0  0  0
    2.3057   -0.7031   -2.4885 H   0  0  0  0  0  0  0  0  0  0  0  0
    1.9387    1.6540   -1.9313 H   0  0  0  0  0  0  0  0  0  0  0  0
    2.8113    1.4803   -0.3851 H   0  0  0  0  0  0  0  0  0  0  0  0
    4.6991    0.6120   -2.1504 H   0  0  0  0  0  0  0  0  0  0  0  0
    2.7948    3.8106   -2.2776 H   0  0  0  0  0  0  0  0  0  0  0  0
    3.3456    5.5901   -3.9286 H   0  0  0  0  0  0  0  0  0  0  0  0
    5.1758    5.2359   -5.6135 H   0  0  0  0  0  0  0  0  0  0  0  0
    7.4972   -0.4837   -5.6196 H   0  0  0  0  0  0  0  0  0  0  0  0
    9.5605    0.6548   -4.8882 H   0  0  0  0  0  0  0  0  0  0  0  0
    9.4812    1.7540   -6.2723 H   0  0  0  0  0  0  0  0  0  0  0  0
   11.0580   -0.0909   -6.8103 H   0  0  0  0  0  0  0  0  0  0  0  0
    9.8460   -1.3048   -6.4112 H   0  0  0  0  0  0  0  0  0  0  0  0
    7.7679   -0.1181   -9.4196 H   0  0  0  0  0  0  0  0  0  0  0  0
  1  2  2  0  0  0  0
  2  3  1  0  0  0  0
  2 28  1  0  0  0  0
  3  4  1  0  0  0  0
  3 57  1  0  0  0  0
  3 58  1  0  0  0  0
  4  5  1  0  0  0  0
  4 27  1  0  0  0  0
  5  6  2  0  0  0  0
  5 59  1  0  0  0  0
  6  7  1  0  0  0  0
  6 22  1  0  0  0  0
  7  8  2  0  0  0  0
  7 20  1  0  0  0  0
  8  9  1  0  0  0  0
  8 17  1  0  0  0  0
  9 10  2  0  0  0  0
  9 15  1  0  0  0  0
 10 11  1  0  0  0  0
 10 60  1  0  0  0  0
 11 12  2  0  0  0  0
 11 61  1  0  0  0  0
 12 13  1  0  0  0  0
 12 14  1  0  0  0  0
 14 15  2  0  0  0  0
 14 62  1  0  0  0  0
 15 16  1  0  0  0  0
 17 18  2  0  0  0  0
 17 19  1  0  0  0  0
 19 20  1  0  0  0  0
 19 63  1  0  0  0  0
 20 21  2  0  0  0  0
 22 23  2  0  0  0  0
 22 27  1  0  0  0  0
 23 24  1  0  0  0  0
 23 64  1  0  0  0  0
 24 25  2  0  0  0  0
 24 65  1  0  0  0  0
 25 26  1  0  0  0  0
 25 66  1  0  0  0  0
 26 27  2  0  0  0  0
 26 67  1  0  0  0  0
 28 29  1  0  0  0  0
 28 68  1  0  0  0  0
 29 30  1  0  0  0  0
 29 69  1  0  0  0  0
 29 70  1  0  0  0  0
 30 31  1  0  0  0  0
 30 71  1  0  0  0  0
 30 72  1  0  0  0  0
 31 32  1  0  0  0  0
 32 33  1  0  0  0  0
 32 73  1  0  0  0  0
 32 74  1  0  0  0  0
 33 34  1  0  0  0  0
 33 75  1  0  0  0  0
 33 76  1  0  0  0  0
 34 35  1  0  0  0  0
 35 36  1  0  0  0  0
 35 77  1  0  0  0  0
 35 78  1  0  0  0  0
 36 37  1  0  0  0  0
 36 79  1  0  0  0  0
 36 80  1  0  0  0  0
 37 38  1  0  0  0  0
 37 81  1  0  0  0  0
 38 39  2  0  0  0  0
 38 43  1  0  0  0  0
 39 40  1  0  0  0  0
 39 82  1  0  0  0  0
 40 41  2  0  0  0  0
 40 83  1  0  0  0  0
 41 42  1  0  0  0  0
 41 84  1  0  0  0  0
 42 43  2  0  0  0  0
 42 55  1  0  0  0  0
 43 44  1  0  0  0  0
 44 45  2  0  0  0  0
 44 46  1  0  0  0  0
 46 47  1  0  0  0  0
 46 55  1  0  0  0  0
 47 48  1  0  0  0  0
 47 53  1  0  0  0  0
 47 85  1  0  0  0  0
 48 49  1  0  0  0  0
 48 86  1  0  0  0  0
 48 87  1  0  0  0  0
 49 50  1  0  0  0  0
 49 88  1  0  0  0  0
 49 89  1  0  0  0  0
 50 51  2  0  0  0  0
 50 52  1  0  0  0  0
 52 53  1  0  0  0  0
 52 90  1  0  0  0  0
 53 54  2  0  0  0  0
 55 56  2  0  0  0  0
M  END
$$$$
protac3895RUN2
  chem.cr 07102519423D
protac3895RUN2
 90 96  0  0  0  0  0  0  0  0999 V2000
   -1.0085   -1.9591   -3.3341 O   0  0  0  0  0  0  0  0  0  0  0  0
   -0.3287   -0.9789   -3.0619 C   0  0  0  0  0  0  0  0  0  0  0  0
    0.3011   -0.0781   -4.0985 C   0  0  0  0  0  0  0  0  0  0  0  0
    0.9492   -0.7940   -5.2097 N   0  0  0  0  0  0  0  0  0  0  0  0
    1.9021   -1.7918   -4.9847 C   0  0  0  0  0  0  0  0  0  0  0  0
    2.7947   -1.8512   -5.9979 C   0  0  0  0  0  0  0  0  0  0  0  0
    3.9424   -2.5978   -6.0553 C   0  0  0  0  0  0  0  0  0  0  0  0
    4.2735   -3.6149   -5.2166 C   0  0  0  0  0  0  0  0  0  0  0  0
    3.4849   -4.1415   -4.2113 C   0  0  0  0  0  0  0  0  0  0  0  0
    2.3254   -4.8704   -4.5491 C   0  0  0  0  0  0  0  0  0  0  0  0
    1.4857   -5.3772   -3.5427 C   0  0  0  0  0  0  0  0  0  0  0  0
    1.8094   -5.1739   -2.1919 C   0  0  0  0  0  0  0  0  0  0  0  0
    0.7521   -5.8002   -0.9344 Cl  0  0  0  0  0  0  0  0  0  0  0  0
    2.9663   -4.4585   -1.8449 C   0  0  0  0  0  0  0  0  0  0  0  0
    3.8004   -3.9383   -2.8479 C   0  0  0  0  0  0  0  0  0  0  0  0
    5.2098   -2.9929   -2.3659 Cl  0  0  0  0  0  0  0  0  0  0  0  0
    5.4641   -4.1377   -5.5152 C   0  0  0  0  0  0  0  0  0  0  0  0
    6.1136   -5.0733   -5.0643 O   0  0  0  0  0  0  0  0  0  0  0  0
    5.9913   -3.4181   -6.5691 N   0  0  0  0  0  0  0  0  0  0  0  0
    5.0080   -2.4865   -6.8916 C   0  0  0  0  0  0  0  0  0  0  0  0
    5.3299   -1.7023   -7.7758 O   0  0  0  0  0  0  0  0  0  0  0  0
    2.3278   -0.9235   -6.9500 C   0  0  0  0  0  0  0  0  0  0  0  0
    2.6234   -0.7459   -8.3189 C   0  0  0  0  0  0  0  0  0  0  0  0
    1.9114    0.2183   -9.0660 C   0  0  0  0  0  0  0  0  0  0  0  0
    0.8574    0.9526   -8.4837 C   0  0  0  0  0  0  0  0  0  0  0  0
    0.4758    0.6952   -7.1562 C   0  0  0  0  0  0  0  0  0  0  0  0
    1.2200   -0.2452   -6.4312 C   0  0  0  0  0  0  0  0  0  0  0  0
   -0.3122   -0.5159   -1.7380 N   0  0  0  0  0  0  0  0  0  0  0  0
   -1.0544   -1.1940   -0.6644 C   0  0  0  0  0  0  0  0  0  0  0  0
   -0.5558   -0.8008    0.7374 C   0  0  0  0  0  0  0  0  0  0  0  0
   -1.3836   -1.4785    1.6916 O   0  0  0  0  0  0  0  0  0  0  0  0
   -2.5648   -0.7761    2.1124 C   0  0  0  0  0  0  0  0  0  0  0  0
   -3.6681   -1.8263    2.3616 C   0  0  0  0  0  0  0  0  0  0  0  0
   -4.4783   -1.4060    3.4700 O   0  0  0  0  0  0  0  0  0  0  0  0
   -5.3416   -0.2800    3.2561 C   0  0  0  0  0  0  0  0  0  0  0  0
   -5.7176    0.2747    4.6470 C   0  0  0  0  0  0  0  0  0  0  0  0
   -4.6590    1.1643    5.1599 N   0  0  0  0  0  0  0  0  0  0  0  0
   -3.4082    0.7617    5.6184 C   0  0  0  0  0  0  0  0  0  0  0  0
   -3.1062   -0.5652    6.0079 C   0  0  0  0  0  0  0  0  0  0  0  0
   -1.8019   -0.9258    6.4263 C   0  0  0  0  0  0  0  0  0  0  0  0
   -0.7715    0.0345    6.4764 C   0  0  0  0  0  0  0  0  0  0  0  0
   -1.0839    1.3483    6.1138 C   0  0  0  0  0  0  0  0  0  0  0  0
   -2.3700    1.7008    5.6974 C   0  0  0  0  0  0  0  0  0  0  0  0
   -2.3591    3.0372    5.3804 C   0  0  0  0  0  0  0  0  0  0  0  0
   -3.1845    3.6649    4.7256 O   0  0  0  0  0  0  0  0  0  0  0  0
   -1.0620    3.5171    5.5633 N   0  0  0  0  0  0  0  0  0  0  0  0
   -0.6584    4.9263    5.4130 C   0  0  0  0  0  0  0  0  0  0  0  0
    0.0938    5.1198    4.0823 C   0  0  0  0  0  0  0  0  0  0  0  0
    0.4848    6.6047    3.9261 C   0  0  0  0  0  0  0  0  0  0  0  0
    1.2332    7.1271    5.1332 C   0  0  0  0  0  0  0  0  0  0  0  0
    1.9493    8.1147    5.0976 O   0  0  0  0  0  0  0  0  0  0  0  0
    0.9493    6.5924    6.3976 N   0  0  0  0  0  0  0  0  0  0  0  0
    0.1516    5.4550    6.5920 C   0  0  0  0  0  0  0  0  0  0  0  0
   -0.0556    5.1442    7.7573 O   0  0  0  0  0  0  0  0  0  0  0  0
   -0.2780    2.4641    6.0533 C   0  0  0  0  0  0  0  0  0  0  0  0
    0.9458    2.4893    5.9867 O   0  0  0  0  0  0  0  0  0  0  0  0
   -0.4899    0.5531   -4.5115 H   0  0  0  0  0  0  0  0  0  0  0  0
    1.0514    0.5741   -3.6379 H   0  0  0  0  0  0  0  0  0  0  0  0
    1.8896   -2.2981   -4.0248 H   0  0  0  0  0  0  0  0  0  0  0  0
    2.0646   -5.0203   -5.5942 H   0  0  0  0  0  0  0  0  0  0  0  0
    0.5861   -5.9265   -3.8069 H   0  0  0  0  0  0  0  0  0  0  0  0
    3.2162   -4.3011   -0.8006 H   0  0  0  0  0  0  0  0  0  0  0  0
    6.7116   -3.7410   -7.1965 H   0  0  0  0  0  0  0  0  0  0  0  0
    3.3368   -1.3653   -8.8444 H   0  0  0  0  0  0  0  0  0  0  0  0
    2.1546    0.3679  -10.1135 H   0  0  0  0  0  0  0  0  0  0  0  0
    0.3009    1.6712   -9.0792 H   0  0  0  0  0  0  0  0  0  0  0  0
   -0.3928    1.1805   -6.7254 H   0  0  0  0  0  0  0  0  0  0  0  0
    0.1877    0.3396   -1.5298 H   0  0  0  0  0  0  0  0  0  0  0  0
   -0.9397   -2.2829   -0.7870 H   0  0  0  0  0  0  0  0  0  0  0  0
   -2.1220   -0.9611   -0.7613 H   0  0  0  0  0  0  0  0  0  0  0  0
   -0.5951    0.2877    0.8805 H   0  0  0  0  0  0  0  0  0  0  0  0
    0.4869   -1.1257    0.8481 H   0  0  0  0  0  0  0  0  0  0  0  0
   -2.9076   -0.0575    1.3560 H   0  0  0  0  0  0  0  0  0  0  0  0
   -2.3527   -0.2309    3.0436 H   0  0  0  0  0  0  0  0  0  0  0  0
   -3.1914   -2.7854    2.6025 H   0  0  0  0  0  0  0  0  0  0  0  0
   -4.2753   -1.9672    1.4585 H   0  0  0  0  0  0  0  0  0  0  0  0
   -4.8548    0.5058    2.6629 H   0  0  0  0  0  0  0  0  0  0  0  0
   -6.2477   -0.5999    2.7253 H   0  0  0  0  0  0  0  0  0  0  0  0
   -6.6524    0.8442    4.5661 H   0  0  0  0  0  0  0  0  0  0  0  0
   -5.9051   -0.5554    5.3390 H   0  0  0  0  0  0  0  0  0  0  0  0
   -4.7259    2.1519    4.9353 H   0  0  0  0  0  0  0  0  0  0  0  0
   -3.8726   -1.3324    5.9755 H   0  0  0  0  0  0  0  0  0  0  0  0
   -1.5906   -1.9551    6.7044 H   0  0  0  0  0  0  0  0  0  0  0  0
    0.2362   -0.2330    6.7854 H   0  0  0  0  0  0  0  0  0  0  0  0
   -1.5744    5.5299    5.3785 H   0  0  0  0  0  0  0  0  0  0  0  0
   -0.5333    4.7893    3.2427 H   0  0  0  0  0  0  0  0  0  0  0  0
    0.9966    4.4926    4.0816 H   0  0  0  0  0  0  0  0  0  0  0  0
    1.1054    6.7382    3.0302 H   0  0  0  0  0  0  0  0  0  0  0  0
   -0.4134    7.2176    3.7811 H   0  0  0  0  0  0  0  0  0  0  0  0
    1.3926    7.0067    7.2037 H   0  0  0  0  0  0  0  0  0  0  0  0
  1  2  2  0  0  0  0
  2  3  1  0  0  0  0
  2 28  1  0  0  0  0
  3  4  1  0  0  0  0
  3 57  1  0  0  0  0
  3 58  1  0  0  0  0
  4  5  1  0  0  0  0
  4 27  1  0  0  0  0
  5  6  2  0  0  0  0
  5 59  1  0  0  0  0
  6  7  1  0  0  0  0
  6 22  1  0  0  0  0
  7  8  2  0  0  0  0
  7 20  1  0  0  0  0
  8  9  1  0  0  0  0
  8 17  1  0  0  0  0
  9 10  2  0  0  0  0
  9 15  1  0  0  0  0
 10 11  1  0  0  0  0
 10 60  1  0  0  0  0
 11 12  2  0  0  0  0
 11 61  1  0  0  0  0
 12 13  1  0  0  0  0
 12 14  1  0  0  0  0
 14 15  2  0  0  0  0
 14 62  1  0  0  0  0
 15 16  1  0  0  0  0
 17 18  2  0  0  0  0
 17 19  1  0  0  0  0
 19 20  1  0  0  0  0
 19 63  1  0  0  0  0
 20 21  2  0  0  0  0
 22 23  2  0  0  0  0
 22 27  1  0  0  0  0
 23 24  1  0  0  0  0
 23 64  1  0  0  0  0
 24 25  2  0  0  0  0
 24 65  1  0  0  0  0
 25 26  1  0  0  0  0
 25 66  1  0  0  0  0
 26 27  2  0  0  0  0
 26 67  1  0  0  0  0
 28 29  1  0  0  0  0
 28 68  1  0  0  0  0
 29 30  1  0  0  0  0
 29 69  1  0  0  0  0
 29 70  1  0  0  0  0
 30 31  1  0  0  0  0
 30 71  1  0  0  0  0
 30 72  1  0  0  0  0
 31 32  1  0  0  0  0
 32 33  1  0  0  0  0
 32 73  1  0  0  0  0
 32 74  1  0  0  0  0
 33 34  1  0  0  0  0
 33 75  1  0  0  0  0
 33 76  1  0  0  0  0
 34 35  1  0  0  0  0
 35 36  1  0  0  0  0
 35 77  1  0  0  0  0
 35 78  1  0  0  0  0
 36 37  1  0  0  0  0
 36 79  1  0  0  0  0
 36 80  1  0  0  0  0
 37 38  1  0  0  0  0
 37 81  1  0  0  0  0
 38 39  2  0  0  0  0
 38 43  1  0  0  0  0
 39 40  1  0  0  0  0
 39 82  1  0  0  0  0
 40 41  2  0  0  0  0
 40 83  1  0  0  0  0
 41 42  1  0  0  0  0
 41 84  1  0  0  0  0
 42 43  2  0  0  0  0
 42 55  1  0  0  0  0
 43 44  1  0  0  0  0
 44 45  2  0  0  0  0
 44 46  1  0  0  0  0
 46 47  1  0  0  0  0
 46 55  1  0  0  0  0
 47 48  1  0  0  0  0
 47 53  1  0  0  0  0
 47 85  1  0  0  0  0
 48 49  1  0  0  0  0
 48 86  1  0  0  0  0
 48 87  1  0  0  0  0
 49 50  1  0  0  0  0
 49 88  1  0  0  0  0
 49 89  1  0  0  0  0
 50 51  2  0  0  0  0
 50 52  1  0  0  0  0
 52 53  1  0  0  0  0
 52 90  1  0  0  0  0
 53 54  2  0  0  0  0
 55 56  2  0  0  0  0
M  END
$$$$
protac3895RUN2
  chem.cr 07102519423D
protac3895RUN2
 90 96  0  0  0  0  0  0  0  0999 V2000
    2.5794    3.5743   -0.5448 O   0  0  0  0  0  0  0  0  0  0  0  0
    1.9901    2.5444   -0.8348 C   0  0  0  0  0  0  0  0  0  0  0  0
    1.5847    2.1901   -2.2538 C   0  0  0  0  0  0  0  0  0  0  0  0
    2.5903    1.3701   -2.9558 N   0  0  0  0  0  0  0  0  0  0  0  0
    3.9089    1.8234   -3.0181 C   0  0  0  0  0  0  0  0  0  0  0  0
    4.7946    0.8051   -2.9124 C   0  0  0  0  0  0  0  0  0  0  0  0
    6.1585    0.9013   -2.7590 C   0  0  0  0  0  0  0  0  0  0  0  0
    6.8942    2.0434   -2.7962 C   0  0  0  0  0  0  0  0  0  0  0  0
    6.4296    3.3320   -2.9712 C   0  0  0  0  0  0  0  0  0  0  0  0
    5.9538    4.0476   -1.8539 C   0  0  0  0  0  0  0  0  0  0  0  0
    5.4569    5.3526   -2.0079 C   0  0  0  0  0  0  0  0  0  0  0  0
    5.4632    5.9603   -3.2729 C   0  0  0  0  0  0  0  0  0  0  0  0
    4.8529    7.5979   -3.4625 Cl  0  0  0  0  0  0  0  0  0  0  0  0
    5.9598    5.2637   -4.3875 C   0  0  0  0  0  0  0  0  0  0  0  0
    6.4360    3.9492   -4.2402 C   0  0  0  0  0  0  0  0  0  0  0  0
    7.0306    3.0880   -5.6597 Cl  0  0  0  0  0  0  0  0  0  0  0  0
    8.1894    1.8167   -2.5779 C   0  0  0  0  0  0  0  0  0  0  0  0
    9.1693    2.5436   -2.4815 O   0  0  0  0  0  0  0  0  0  0  0  0
    8.3614    0.4607   -2.4035 N   0  0  0  0  0  0  0  0  0  0  0  0
    7.0726   -0.0640   -2.4641 C   0  0  0  0  0  0  0  0  0  0  0  0
    7.0073   -1.2451   -2.1596 O   0  0  0  0  0  0  0  0  0  0  0  0
    3.9952   -0.3587   -2.9272 C   0  0  0  0  0  0  0  0  0  0  0  0
    4.2921   -1.7238   -3.1444 C   0  0  0  0  0  0  0  0  0  0  0  0
    3.2486   -2.6753   -3.1580 C   0  0  0  0  0  0  0  0  0  0  0  0
    1.9024   -2.2762   -3.0400 C   0  0  0  0  0  0  0  0  0  0  0  0
    1.5860   -0.9106   -2.9555 C   0  0  0  0  0  0  0  0  0  0  0  0
    2.6433    0.0071   -2.8994 C   0  0  0  0  0  0  0  0  0  0  0  0
    1.5270    1.7733    0.2400 N   0  0  0  0  0  0  0  0  0  0  0  0
    1.1306    0.3597    0.1442 C   0  0  0  0  0  0  0  0  0  0  0  0
    0.3745   -0.1029    1.4027 C   0  0  0  0  0  0  0  0  0  0  0  0
   -0.0090   -1.4728    1.2216 O   0  0  0  0  0  0  0  0  0  0  0  0
    0.9958   -2.4578    1.5142 C   0  0  0  0  0  0  0  0  0  0  0  0
    0.4090   -3.8642    1.2406 C   0  0  0  0  0  0  0  0  0  0  0  0
   -0.4107   -4.2988    2.3446 O   0  0  0  0  0  0  0  0  0  0  0  0
   -1.6874   -3.6570    2.4702 C   0  0  0  0  0  0  0  0  0  0  0  0
   -2.4417   -4.3227    3.6314 C   0  0  0  0  0  0  0  0  0  0  0  0
   -3.7125   -3.6145    3.8448 N   0  0  0  0  0  0  0  0  0  0  0  0
   -3.7653   -2.3252    4.3595 C   0  0  0  0  0  0  0  0  0  0  0  0
   -2.9514   -1.8971    5.4351 C   0  0  0  0  0  0  0  0  0  0  0  0
   -3.0205   -0.5668    5.9189 C   0  0  0  0  0  0  0  0  0  0  0  0
   -3.9018    0.3645    5.3304 C   0  0  0  0  0  0  0  0  0  0  0  0
   -4.7045   -0.0740    4.2705 C   0  0  0  0  0  0  0  0  0  0  0  0
   -4.6383   -1.3852    3.7998 C   0  0  0  0  0  0  0  0  0  0  0  0
   -5.5129   -1.4987    2.7437 C   0  0  0  0  0  0  0  0  0  0  0  0
   -5.7615   -2.4889    2.0651 O   0  0  0  0  0  0  0  0  0  0  0  0
   -6.1655   -0.2698    2.5691 N   0  0  0  0  0  0  0  0  0  0  0  0
   -6.9882    0.1376    1.4096 C   0  0  0  0  0  0  0  0  0  0  0  0
   -8.2833   -0.6988    1.3215 C   0  0  0  0  0  0  0  0  0  0  0  0
   -9.1213   -0.2384    0.1095 C   0  0  0  0  0  0  0  0  0  0  0  0
   -8.3100   -0.2184   -1.1675 C   0  0  0  0  0  0  0  0  0  0  0  0
   -8.8161   -0.2612   -2.2775 O   0  0  0  0  0  0  0  0  0  0  0  0
   -6.9463    0.0956   -1.1037 N   0  0  0  0  0  0  0  0  0  0  0  0
   -6.2172    0.1051    0.0956 C   0  0  0  0  0  0  0  0  0  0  0  0
   -5.0347    0.4036   -0.0056 O   0  0  0  0  0  0  0  0  0  0  0  0
   -5.6280    0.6111    3.5136 C   0  0  0  0  0  0  0  0  0  0  0  0
   -6.0336    1.7590    3.6587 O   0  0  0  0  0  0  0  0  0  0  0  0
    0.6150    1.6855   -2.2644 H   0  0  0  0  0  0  0  0  0  0  0  0
    1.4624    3.1250   -2.8127 H   0  0  0  0  0  0  0  0  0  0  0  0
    4.0528    2.8976   -3.0326 H   0  0  0  0  0  0  0  0  0  0  0  0
    5.9441    3.5791   -0.8727 H   0  0  0  0  0  0  0  0  0  0  0  0
    5.0646    5.8872   -1.1466 H   0  0  0  0  0  0  0  0  0  0  0  0
    5.9746    5.7403   -5.3636 H   0  0  0  0  0  0  0  0  0  0  0  0
    9.1061    0.0567   -1.8587 H   0  0  0  0  0  0  0  0  0  0  0  0
    5.2862   -2.0752   -3.3657 H   0  0  0  0  0  0  0  0  0  0  0  0
    3.4883   -3.7267   -3.2982 H   0  0  0  0  0  0  0  0  0  0  0  0
    1.1085   -3.0183   -3.0779 H   0  0  0  0  0  0  0  0  0  0  0  0
    0.5512   -0.5828   -2.9660 H   0  0  0  0  0  0  0  0  0  0  0  0
    1.6762    2.1712    1.1592 H   0  0  0  0  0  0  0  0  0  0  0  0
    2.0261   -0.2553   -0.0154 H   0  0  0  0  0  0  0  0  0  0  0  0
    0.4628    0.2175   -0.7129 H   0  0  0  0  0  0  0  0  0  0  0  0
   -0.5246    0.5160    1.5229 H   0  0  0  0  0  0  0  0  0  0  0  0
    0.9937    0.0209    2.3021 H   0  0  0  0  0  0  0  0  0  0  0  0
    1.3175   -2.3915    2.5626 H   0  0  0  0  0  0  0  0  0  0  0  0
    1.8758   -2.3156    0.8743 H   0  0  0  0  0  0  0  0  0  0  0  0
    1.2416   -4.5671    1.1107 H   0  0  0  0  0  0  0  0  0  0  0  0
   -0.1614   -3.8562    0.3021 H   0  0  0  0  0  0  0  0  0  0  0  0
   -1.5718   -2.5891    2.6913 H   0  0  0  0  0  0  0  0  0  0  0  0
   -2.2692   -3.7570    1.5440 H   0  0  0  0  0  0  0  0  0  0  0  0
   -2.6347   -5.3749    3.3851 H   0  0  0  0  0  0  0  0  0  0  0  0
   -1.8201   -4.2972    4.5344 H   0  0  0  0  0  0  0  0  0  0  0  0
   -4.4554   -3.8212    3.1841 H   0  0  0  0  0  0  0  0  0  0  0  0
   -2.2701   -2.5949    5.9100 H   0  0  0  0  0  0  0  0  0  0  0  0
   -2.3889   -0.2644    6.7505 H   0  0  0  0  0  0  0  0  0  0  0  0
   -3.9573    1.3904    5.6838 H   0  0  0  0  0  0  0  0  0  0  0  0
   -7.2796    1.1849    1.5632 H   0  0  0  0  0  0  0  0  0  0  0  0
   -8.8573   -0.6083    2.2535 H   0  0  0  0  0  0  0  0  0  0  0  0
   -8.0302   -1.7611    1.1990 H   0  0  0  0  0  0  0  0  0  0  0  0
   -9.9815   -0.9066   -0.0231 H   0  0  0  0  0  0  0  0  0  0  0  0
   -9.5264    0.7658    0.2852 H   0  0  0  0  0  0  0  0  0  0  0  0
   -6.4419    0.2150   -1.9701 H   0  0  0  0  0  0  0  0  0  0  0  0
  1  2  2  0  0  0  0
  2  3  1  0  0  0  0
  2 28  1  0  0  0  0
  3  4  1  0  0  0  0
  3 57  1  0  0  0  0
  3 58  1  0  0  0  0
  4  5  1  0  0  0  0
  4 27  1  0  0  0  0
  5  6  2  0  0  0  0
  5 59  1  0  0  0  0
  6  7  1  0  0  0  0
  6 22  1  0  0  0  0
  7  8  2  0  0  0  0
  7 20  1  0  0  0  0
  8  9  1  0  0  0  0
  8 17  1  0  0  0  0
  9 10  2  0  0  0  0
  9 15  1  0  0  0  0
 10 11  1  0  0  0  0
 10 60  1  0  0  0  0
 11 12  2  0  0  0  0
 11 61  1  0  0  0  0
 12 13  1  0  0  0  0
 12 14  1  0  0  0  0
 14 15  2  0  0  0  0
 14 62  1  0  0  0  0
 15 16  1  0  0  0  0
 17 18  2  0  0  0  0
 17 19  1  0  0  0  0
 19 20  1  0  0  0  0
 19 63  1  0  0  0  0
 20 21  2  0  0  0  0
 22 23  2  0  0  0  0
 22 27  1  0  0  0  0
 23 24  1  0  0  0  0
 23 64  1  0  0  0  0
 24 25  2  0  0  0  0
 24 65  1  0  0  0  0
 25 26  1  0  0  0  0
 25 66  1  0  0  0  0
 26 27  2  0  0  0  0
 26 67  1  0  0  0  0
 28 29  1  0  0  0  0
 28 68  1  0  0  0  0
 29 30  1  0  0  0  0
 29 69  1  0  0  0  0
 29 70  1  0  0  0  0
 30 31  1  0  0  0  0
 30 71  1  0  0  0  0
 30 72  1  0  0  0  0
 31 32  1  0  0  0  0
 32 33  1  0  0  0  0
 32 73  1  0  0  0  0
 32 74  1  0  0  0  0
 33 34  1  0  0  0  0
 33 75  1  0  0  0  0
 33 76  1  0  0  0  0
 34 35  1  0  0  0  0
 35 36  1  0  0  0  0
 35 77  1  0  0  0  0
 35 78  1  0  0  0  0
 36 37  1  0  0  0  0
 36 79  1  0  0  0  0
 36 80  1  0  0  0  0
 37 38  1  0  0  0  0
 37 81  1  0  0  0  0
 38 39  2  0  0  0  0
 38 43  1  0  0  0  0
 39 40  1  0  0  0  0
 39 82  1  0  0  0  0
 40 41  2  0  0  0  0
 40 83  1  0  0  0  0
 41 42  1  0  0  0  0
 41 84  1  0  0  0  0
 42 43  2  0  0  0  0
 42 55  1  0  0  0  0
 43 44  1  0  0  0  0
 44 45  2  0  0  0  0
 44 46  1  0  0  0  0
 46 47  1  0  0  0  0
 46 55  1  0  0  0  0
 47 48  1  0  0  0  0
 47 53  1  0  0  0  0
 47 85  1  0  0  0  0
 48 49  1  0  0  0  0
 48 86  1  0  0  0  0
 48 87  1  0  0  0  0
 49 50  1  0  0  0  0
 49 88  1  0  0  0  0
 49 89  1  0  0  0  0
 50 51  2  0  0  0  0
 50 52  1  0  0  0  0
 52 53  1  0  0  0  0
 52 90  1  0  0  0  0
 53 54  2  0  0  0  0
 55 56  2  0  0  0  0
M  END
$$$$
protac3895RUN2
  chem.cr 07102519423D
protac3895RUN2
 90 96  0  0  0  0  0  0  0  0999 V2000
    1.5613   -2.3788    0.1291 O   0  0  0  0  0  0  0  0  0  0  0  0
    1.4655   -1.9850   -1.0235 C   0  0  0  0  0  0  0  0  0  0  0  0
    2.5611   -2.1485   -2.0554 C   0  0  0  0  0  0  0  0  0  0  0  0
    3.7717   -1.3746   -1.7221 N   0  0  0  0  0  0  0  0  0  0  0  0
    4.7736   -1.9120   -0.9091 C   0  0  0  0  0  0  0  0  0  0  0  0
    5.9847   -1.4013   -1.2313 C   0  0  0  0  0  0  0  0  0  0  0  0
    7.2126   -1.7997   -0.7653 C   0  0  0  0  0  0  0  0  0  0  0  0
    7.4428   -2.6361    0.2773 C   0  0  0  0  0  0  0  0  0  0  0  0
    6.4963   -3.1963    1.1151 C   0  0  0  0  0  0  0  0  0  0  0  0
    6.2094   -4.5717    1.0178 C   0  0  0  0  0  0  0  0  0  0  0  0
    5.2335   -5.1540    1.8464 C   0  0  0  0  0  0  0  0  0  0  0  0
    4.5457   -4.3647    2.7815 C   0  0  0  0  0  0  0  0  0  0  0  0
    3.3193   -5.0927    3.8091 Cl  0  0  0  0  0  0  0  0  0  0  0  0
    4.8375   -2.9971    2.8979 C   0  0  0  0  0  0  0  0  0  0  0  0
    5.8134   -2.4119    2.0725 C   0  0  0  0  0  0  0  0  0  0  0  0
    6.1563   -0.6893    2.2473 Cl  0  0  0  0  0  0  0  0  0  0  0  0
    8.7438   -2.8736    0.4463 C   0  0  0  0  0  0  0  0  0  0  0  0
    9.3773   -3.5679    1.2286 O   0  0  0  0  0  0  0  0  0  0  0  0
    9.4396   -2.1496   -0.5038 N   0  0  0  0  0  0  0  0  0  0  0  0
    8.4479   -1.5264   -1.2600 C   0  0  0  0  0  0  0  0  0  0  0  0
    8.8630   -0.9587   -2.2628 O   0  0  0  0  0  0  0  0  0  0  0  0
    5.7168   -0.4124   -2.1979 C   0  0  0  0  0  0  0  0  0  0  0  0
    6.4818    0.6799   -2.6617 C   0  0  0  0  0  0  0  0  0  0  0  0
    5.9028    1.6046   -3.5591 C   0  0  0  0  0  0  0  0  0  0  0  0
    4.5487    1.4957   -3.9393 C   0  0  0  0  0  0  0  0  0  0  0  0
    3.7476    0.4777   -3.3928 C   0  0  0  0  0  0  0  0  0  0  0  0
    4.3567   -0.4409   -2.5283 C   0  0  0  0  0  0  0  0  0  0  0  0
    0.2955   -1.2927   -1.3627 N   0  0  0  0  0  0  0  0  0  0  0  0
   -0.3597   -1.4072   -2.6747 C   0  0  0  0  0  0  0  0  0  0  0  0
   -1.8794   -1.2067   -2.5819 C   0  0  0  0  0  0  0  0  0  0  0  0
   -2.4094   -1.5958   -3.8568 O   0  0  0  0  0  0  0  0  0  0  0  0
   -3.8165   -1.3875   -4.0623 C   0  0  0  0  0  0  0  0  0  0  0  0
   -4.0834    0.1176   -4.3253 C   0  0  0  0  0  0  0  0  0  0  0  0
   -4.4813    0.7957   -3.1195 O   0  0  0  0  0  0  0  0  0  0  0  0
   -5.7933    0.4812   -2.6247 C   0  0  0  0  0  0  0  0  0  0  0  0
   -6.1964    1.5678   -1.6094 C   0  0  0  0  0  0  0  0  0  0  0  0
   -5.3072    1.5886   -0.4352 N   0  0  0  0  0  0  0  0  0  0  0  0
   -5.4941    0.8445    0.7247 C   0  0  0  0  0  0  0  0  0  0  0  0
   -6.3373   -0.2918    0.7820 C   0  0  0  0  0  0  0  0  0  0  0  0
   -6.5119   -1.0117    1.9889 C   0  0  0  0  0  0  0  0  0  0  0  0
   -5.8527   -0.6080    3.1671 C   0  0  0  0  0  0  0  0  0  0  0  0
   -5.0171    0.5126    3.0972 C   0  0  0  0  0  0  0  0  0  0  0  0
   -4.8425    1.2198    1.9079 C   0  0  0  0  0  0  0  0  0  0  0  0
   -4.0183    2.2921    2.1671 C   0  0  0  0  0  0  0  0  0  0  0  0
   -3.8022    3.2511    1.4372 O   0  0  0  0  0  0  0  0  0  0  0  0
   -3.7068    2.2852    3.5380 N   0  0  0  0  0  0  0  0  0  0  0  0
   -3.1419    3.3936    4.3431 C   0  0  0  0  0  0  0  0  0  0  0  0
   -4.2617    4.2587    4.9668 C   0  0  0  0  0  0  0  0  0  0  0  0
   -4.8533    5.2145    3.9079 C   0  0  0  0  0  0  0  0  0  0  0  0
   -3.7801    6.0329    3.2238 C   0  0  0  0  0  0  0  0  0  0  0  0
   -3.9682    7.1645    2.8028 O   0  0  0  0  0  0  0  0  0  0  0  0
   -2.4726    5.5346    3.1597 N   0  0  0  0  0  0  0  0  0  0  0  0
   -2.1212    4.2453    3.5934 C   0  0  0  0  0  0  0  0  0  0  0  0
   -0.9330    3.9603    3.5293 O   0  0  0  0  0  0  0  0  0  0  0  0
   -4.2959    1.1391    4.0851 C   0  0  0  0  0  0  0  0  0  0  0  0
   -4.3361    0.9343    5.2948 O   0  0  0  0  0  0  0  0  0  0  0  0
    2.8319   -3.2100   -2.1077 H   0  0  0  0  0  0  0  0  0  0  0  0
    2.2137   -1.8504   -3.0497 H   0  0  0  0  0  0  0  0  0  0  0  0
    4.4959   -2.7102   -0.2281 H   0  0  0  0  0  0  0  0  0  0  0  0
    6.7428   -5.1860    0.2966 H   0  0  0  0  0  0  0  0  0  0  0  0
    5.0079   -6.2136    1.7624 H   0  0  0  0  0  0  0  0  0  0  0  0
    4.3066   -2.3875    3.6228 H   0  0  0  0  0  0  0  0  0  0  0  0
   10.3381   -2.4168   -0.8717 H   0  0  0  0  0  0  0  0  0  0  0  0
    7.4809    0.8787   -2.3026 H   0  0  0  0  0  0  0  0  0  0  0  0
    6.4979    2.4357   -3.9270 H   0  0  0  0  0  0  0  0  0  0  0  0
    4.1111    2.2338   -4.6071 H   0  0  0  0  0  0  0  0  0  0  0  0
    2.6822    0.4390   -3.5951 H   0  0  0  0  0  0  0  0  0  0  0  0
   -0.2487   -0.9404   -0.5836 H   0  0  0  0  0  0  0  0  0  0  0  0
   -0.1654   -2.4044   -3.0928 H   0  0  0  0  0  0  0  0  0  0  0  0
    0.0564   -0.6579   -3.3621 H   0  0  0  0  0  0  0  0  0  0  0  0
   -2.1050   -0.1578   -2.3480 H   0  0  0  0  0  0  0  0  0  0  0  0
   -2.2927   -1.8396   -1.7855 H   0  0  0  0  0  0  0  0  0  0  0  0
   -4.4005   -1.7638   -3.2144 H   0  0  0  0  0  0  0  0  0  0  0  0
   -4.1322   -1.9480   -4.9508 H   0  0  0  0  0  0  0  0  0  0  0  0
   -4.8662    0.2146   -5.0873 H   0  0  0  0  0  0  0  0  0  0  0  0
   -3.1742    0.5774   -4.7342 H   0  0  0  0  0  0  0  0  0  0  0  0
   -6.5253    0.4802   -3.4434 H   0  0  0  0  0  0  0  0  0  0  0  0
   -5.8076   -0.5037   -2.1441 H   0  0  0  0  0  0  0  0  0  0  0  0
   -6.1637    2.5454   -2.1109 H   0  0  0  0  0  0  0  0  0  0  0  0
   -7.2345    1.4065   -1.2911 H   0  0  0  0  0  0  0  0  0  0  0  0
   -4.6396    2.3516   -0.3618 H   0  0  0  0  0  0  0  0  0  0  0  0
   -6.8642   -0.6265   -0.1040 H   0  0  0  0  0  0  0  0  0  0  0  0
   -7.1676   -1.8779    2.0102 H   0  0  0  0  0  0  0  0  0  0  0  0
   -5.9914   -1.1418    4.1048 H   0  0  0  0  0  0  0  0  0  0  0  0
   -2.5919    2.9230    5.1693 H   0  0  0  0  0  0  0  0  0  0  0  0
   -3.8352    4.8492    5.7891 H   0  0  0  0  0  0  0  0  0  0  0  0
   -5.0441    3.6229    5.4027 H   0  0  0  0  0  0  0  0  0  0  0  0
   -5.4022    4.6454    3.1477 H   0  0  0  0  0  0  0  0  0  0  0  0
   -5.5793    5.8906    4.3749 H   0  0  0  0  0  0  0  0  0  0  0  0
   -1.7676    6.0931    2.7018 H   0  0  0  0  0  0  0  0  0  0  0  0
  1  2  2  0  0  0  0
  2  3  1  0  0  0  0
  2 28  1  0  0  0  0
  3  4  1  0  0  0  0
  3 57  1  0  0  0  0
  3 58  1  0  0  0  0
  4  5  1  0  0  0  0
  4 27  1  0  0  0  0
  5  6  2  0  0  0  0
  5 59  1  0  0  0  0
  6  7  1  0  0  0  0
  6 22  1  0  0  0  0
  7  8  2  0  0  0  0
  7 20  1  0  0  0  0
  8  9  1  0  0  0  0
  8 17  1  0  0  0  0
  9 10  2  0  0  0  0
  9 15  1  0  0  0  0
 10 11  1  0  0  0  0
 10 60  1  0  0  0  0
 11 12  2  0  0  0  0
 11 61  1  0  0  0  0
 12 13  1  0  0  0  0
 12 14  1  0  0  0  0
 14 15  2  0  0  0  0
 14 62  1  0  0  0  0
 15 16  1  0  0  0  0
 17 18  2  0  0  0  0
 17 19  1  0  0  0  0
 19 20  1  0  0  0  0
 19 63  1  0  0  0  0
 20 21  2  0  0  0  0
 22 23  2  0  0  0  0
 22 27  1  0  0  0  0
 23 24  1  0  0  0  0
 23 64  1  0  0  0  0
 24 25  2  0  0  0  0
 24 65  1  0  0  0  0
 25 26  1  0  0  0  0
 25 66  1  0  0  0  0
 26 27  2  0  0  0  0
 26 67  1  0  0  0  0
 28 29  1  0  0  0  0
 28 68  1  0  0  0  0
 29 30  1  0  0  0  0
 29 69  1  0  0  0  0
 29 70  1  0  0  0  0
 30 31  1  0  0  0  0
 30 71  1  0  0  0  0
 30 72  1  0  0  0  0
 31 32  1  0  0  0  0
 32 33  1  0  0  0  0
 32 73  1  0  0  0  0
 32 74  1  0  0  0  0
 33 34  1  0  0  0  0
 33 75  1  0  0  0  0
 33 76  1  0  0  0  0
 34 35  1  0  0  0  0
 35 36  1  0  0  0  0
 35 77  1  0  0  0  0
 35 78  1  0  0  0  0
 36 37  1  0  0  0  0
 36 79  1  0  0  0  0
 36 80  1  0  0  0  0
 37 38  1  0  0  0  0
 37 81  1  0  0  0  0
 38 39  2  0  0  0  0
 38 43  1  0  0  0  0
 39 40  1  0  0  0  0
 39 82  1  0  0  0  0
 40 41  2  0  0  0  0
 40 83  1  0  0  0  0
 41 42  1  0  0  0  0
 41 84  1  0  0  0  0
 42 43  2  0  0  0  0
 42 55  1  0  0  0  0
 43 44  1  0  0  0  0
 44 45  2  0  0  0  0
 44 46  1  0  0  0  0
 46 47  1  0  0  0  0
 46 55  1  0  0  0  0
 47 48  1  0  0  0  0
 47 53  1  0  0  0  0
 47 85  1  0  0  0  0
 48 49  1  0  0  0  0
 48 86  1  0  0  0  0
 48 87  1  0  0  0  0
 49 50  1  0  0  0  0
 49 88  1  0  0  0  0
 49 89  1  0  0  0  0
 50 51  2  0  0  0  0
 50 52  1  0  0  0  0
 52 53  1  0  0  0  0
 52 90  1  0  0  0  0
 53 54  2  0  0  0  0
 55 56  2  0  0  0  0
M  END
$$$$
protac3895RUN2
  chem.cr 07102519423D
protac3895RUN2
 90 96  0  0  0  0  0  0  0  0999 V2000
    0.9587   -4.2225    0.1541 O   0  0  0  0  0  0  0  0  0  0  0  0
    0.7208   -3.2078   -0.4837 C   0  0  0  0  0  0  0  0  0  0  0  0
    1.3690   -2.9006   -1.8167 C   0  0  0  0  0  0  0  0  0  0  0  0
    2.3146   -1.7673   -1.8021 N   0  0  0  0  0  0  0  0  0  0  0  0
    3.1061   -1.4015   -0.7122 C   0  0  0  0  0  0  0  0  0  0  0  0
    4.0397   -0.4898   -1.0805 C   0  0  0  0  0  0  0  0  0  0  0  0
    5.0881   -0.0144   -0.3288 C   0  0  0  0  0  0  0  0  0  0  0  0
    5.3004   -0.2452    0.9962 C   0  0  0  0  0  0  0  0  0  0  0  0
    4.4909   -0.9666    1.8484 C   0  0  0  0  0  0  0  0  0  0  0  0
    4.6852   -2.3545    1.9824 C   0  0  0  0  0  0  0  0  0  0  0  0
    3.8299   -3.1115    2.8015 C   0  0  0  0  0  0  0  0  0  0  0  0
    2.7906   -2.4778    3.5033 C   0  0  0  0  0  0  0  0  0  0  0  0
    1.7047   -3.4276    4.5060 Cl  0  0  0  0  0  0  0  0  0  0  0  0
    2.6215   -1.0883    3.4103 C   0  0  0  0  0  0  0  0  0  0  0  0
    3.4721   -0.3303    2.5888 C   0  0  0  0  0  0  0  0  0  0  0  0
    3.2597    1.4184    2.5070 Cl  0  0  0  0  0  0  0  0  0  0  0  0
    6.4205    0.3264    1.4392 C   0  0  0  0  0  0  0  0  0  0  0  0
    6.9781    0.3610    2.5281 O   0  0  0  0  0  0  0  0  0  0  0  0
    7.0006    0.9774    0.3728 N   0  0  0  0  0  0  0  0  0  0  0  0
    6.1680    0.7234   -0.7127 C   0  0  0  0  0  0  0  0  0  0  0  0
    6.6045    1.1251   -1.7811 O   0  0  0  0  0  0  0  0  0  0  0  0
    3.7353   -0.1902   -2.4287 C   0  0  0  0  0  0  0  0  0  0  0  0
    4.1154    0.8706   -3.2823 C   0  0  0  0  0  0  0  0  0  0  0  0
    3.5976    0.9321   -4.5948 C   0  0  0  0  0  0  0  0  0  0  0  0
    2.6456   -0.0060   -5.0442 C   0  0  0  0  0  0  0  0  0  0  0  0
    2.1603   -0.9833   -4.1614 C   0  0  0  0  0  0  0  0  0  0  0  0
    2.7109   -1.0332   -2.8752 C   0  0  0  0  0  0  0  0  0  0  0  0
   -0.4616   -2.5359   -0.1572 N   0  0  0  0  0  0  0  0  0  0  0  0
   -0.6149   -1.0755   -0.2805 C   0  0  0  0  0  0  0  0  0  0  0  0
   -1.7398   -0.6569   -1.2438 C   0  0  0  0  0  0  0  0  0  0  0  0
   -1.3886   -1.0966   -2.5647 O   0  0  0  0  0  0  0  0  0  0  0  0
   -2.3409   -0.8236   -3.6076 C   0  0  0  0  0  0  0  0  0  0  0  0
   -2.3574    0.6921   -3.9509 C   0  0  0  0  0  0  0  0  0  0  0  0
   -3.1932    1.4322   -3.0412 O   0  0  0  0  0  0  0  0  0  0  0  0
   -4.6104    1.2152   -3.1355 C   0  0  0  0  0  0  0  0  0  0  0  0
   -5.2990    2.1455   -2.1133 C   0  0  0  0  0  0  0  0  0  0  0  0
   -4.7661    1.9535   -0.7519 N   0  0  0  0  0  0  0  0  0  0  0  0
   -4.8324    0.7792   -0.0106 C   0  0  0  0  0  0  0  0  0  0  0  0
   -5.7269   -0.2763   -0.3071 C   0  0  0  0  0  0  0  0  0  0  0  0
   -5.7291   -1.4682    0.4576 C   0  0  0  0  0  0  0  0  0  0  0  0
   -4.8314   -1.6340    1.5325 C   0  0  0  0  0  0  0  0  0  0  0  0
   -3.9574   -0.5794    1.8216 C   0  0  0  0  0  0  0  0  0  0  0  0
   -3.9643    0.5964    1.0749 C   0  0  0  0  0  0  0  0  0  0  0  0
   -2.9968    1.4339    1.5790 C   0  0  0  0  0  0  0  0  0  0  0  0
   -2.9792    2.6550    1.4935 O   0  0  0  0  0  0  0  0  0  0  0  0
   -2.3666    0.7755    2.6462 N   0  0  0  0  0  0  0  0  0  0  0  0
   -1.0228    1.0958    3.1787 C   0  0  0  0  0  0  0  0  0  0  0  0
   -1.1200    1.7253    4.5860 C   0  0  0  0  0  0  0  0  0  0  0  0
   -1.5381    3.2078    4.4732 C   0  0  0  0  0  0  0  0  0  0  0  0
   -0.6170    3.9802    3.5551 C   0  0  0  0  0  0  0  0  0  0  0  0
   -0.3425    5.1603    3.7123 O   0  0  0  0  0  0  0  0  0  0  0  0
    0.0124    3.3126    2.4987 N   0  0  0  0  0  0  0  0  0  0  0  0
   -0.1965    1.9536    2.2248 C   0  0  0  0  0  0  0  0  0  0  0  0
    0.3383    1.5154    1.2171 O   0  0  0  0  0  0  0  0  0  0  0  0
   -2.9876   -0.4709    2.7891 C   0  0  0  0  0  0  0  0  0  0  0  0
   -2.5002   -1.3676    3.4667 O   0  0  0  0  0  0  0  0  0  0  0  0
    1.9075   -3.7917   -2.1602 H   0  0  0  0  0  0  0  0  0  0  0  0
    0.5807   -2.6900   -2.5467 H   0  0  0  0  0  0  0  0  0  0  0  0
    2.9497   -1.9291    0.2212 H   0  0  0  0  0  0  0  0  0  0  0  0
    5.4799   -2.8425    1.4237 H   0  0  0  0  0  0  0  0  0  0  0  0
    3.9664   -4.1856    2.8851 H   0  0  0  0  0  0  0  0  0  0  0  0
    1.8361   -0.5993    3.9769 H   0  0  0  0  0  0  0  0  0  0  0  0
    7.8742    1.4802    0.3671 H   0  0  0  0  0  0  0  0  0  0  0  0
    4.7458    1.6828   -2.9553 H   0  0  0  0  0  0  0  0  0  0  0  0
    3.9158    1.7315   -5.2568 H   0  0  0  0  0  0  0  0  0  0  0  0
    2.2443    0.0621   -6.0521 H   0  0  0  0  0  0  0  0  0  0  0  0
    1.3663   -1.6575   -4.4637 H   0  0  0  0  0  0  0  0  0  0  0  0
   -1.0918   -3.0336    0.4586 H   0  0  0  0  0  0  0  0  0  0  0  0
    0.3252   -0.6123   -0.6094 H   0  0  0  0  0  0  0  0  0  0  0  0
   -0.8358   -0.6705    0.7137 H   0  0  0  0  0  0  0  0  0  0  0  0
   -1.8358    0.4362   -1.2076 H   0  0  0  0  0  0  0  0  0  0  0  0
   -2.6894   -1.1017   -0.9201 H   0  0  0  0  0  0  0  0  0  0  0  0
   -3.3368   -1.1895   -3.3348 H   0  0  0  0  0  0  0  0  0  0  0  0
   -2.0338   -1.3653   -4.5096 H   0  0  0  0  0  0  0  0  0  0  0  0
   -2.7096    0.8305   -4.9813 H   0  0  0  0  0  0  0  0  0  0  0  0
   -1.3289    1.0722   -3.9074 H   0  0  0  0  0  0  0  0  0  0  0  0
   -4.9712    1.4485   -4.1459 H   0  0  0  0  0  0  0  0  0  0  0  0
   -4.8690    0.1747   -2.9082 H   0  0  0  0  0  0  0  0  0  0  0  0
   -5.1244    3.1856   -2.4228 H   0  0  0  0  0  0  0  0  0  0  0  0
   -6.3834    1.9769   -2.1212 H   0  0  0  0  0  0  0  0  0  0  0  0
   -4.0918    2.6345   -0.4149 H   0  0  0  0  0  0  0  0  0  0  0  0
   -6.4300   -0.1781   -1.1269 H   0  0  0  0  0  0  0  0  0  0  0  0
   -6.4271   -2.2645    0.2117 H   0  0  0  0  0  0  0  0  0  0  0  0
   -4.8220   -2.5457    2.1257 H   0  0  0  0  0  0  0  0  0  0  0  0
   -0.4817    0.1464    3.2794 H   0  0  0  0  0  0  0  0  0  0  0  0
   -0.1395    1.6631    5.0797 H   0  0  0  0  0  0  0  0  0  0  0  0
   -1.8285    1.1629    5.2100 H   0  0  0  0  0  0  0  0  0  0  0  0
   -2.5636    3.2827    4.0897 H   0  0  0  0  0  0  0  0  0  0  0  0
   -1.5397    3.6752    5.4654 H   0  0  0  0  0  0  0  0  0  0  0  0
    0.5791    3.8495    1.8594 H   0  0  0  0  0  0  0  0  0  0  0  0
  1  2  2  0  0  0  0
  2  3  1  0  0  0  0
  2 28  1  0  0  0  0
  3  4  1  0  0  0  0
  3 57  1  0  0  0  0
  3 58  1  0  0  0  0
  4  5  1  0  0  0  0
  4 27  1  0  0  0  0
  5  6  2  0  0  0  0
  5 59  1  0  0  0  0
  6  7  1  0  0  0  0
  6 22  1  0  0  0  0
  7  8  2  0  0  0  0
  7 20  1  0  0  0  0
  8  9  1  0  0  0  0
  8 17  1  0  0  0  0
  9 10  2  0  0  0  0
  9 15  1  0  0  0  0
 10 11  1  0  0  0  0
 10 60  1  0  0  0  0
 11 12  2  0  0  0  0
 11 61  1  0  0  0  0
 12 13  1  0  0  0  0
 12 14  1  0  0  0  0
 14 15  2  0  0  0  0
 14 62  1  0  0  0  0
 15 16  1  0  0  0  0
 17 18  2  0  0  0  0
 17 19  1  0  0  0  0
 19 20  1  0  0  0  0
 19 63  1  0  0  0  0
 20 21  2  0  0  0  0
 22 23  2  0  0  0  0
 22 27  1  0  0  0  0
 23 24  1  0  0  0  0
 23 64  1  0  0  0  0
 24 25  2  0  0  0  0
 24 65  1  0  0  0  0
 25 26  1  0  0  0  0
 25 66  1  0  0  0  0
 26 27  2  0  0  0  0
 26 67  1  0  0  0  0
 28 29  1  0  0  0  0
 28 68  1  0  0  0  0
 29 30  1  0  0  0  0
 29 69  1  0  0  0  0
 29 70  1  0  0  0  0
 30 31  1  0  0  0  0
 30 71  1  0  0  0  0
 30 72  1  0  0  0  0
 31 32  1  0  0  0  0
 32 33  1  0  0  0  0
 32 73  1  0  0  0  0
 32 74  1  0  0  0  0
 33 34  1  0  0  0  0
 33 75  1  0  0  0  0
 33 76  1  0  0  0  0
 34 35  1  0  0  0  0
 35 36  1  0  0  0  0
 35 77  1  0  0  0  0
 35 78  1  0  0  0  0
 36 37  1  0  0  0  0
 36 79  1  0  0  0  0
 36 80  1  0  0  0  0
 37 38  1  0  0  0  0
 37 81  1  0  0  0  0
 38 39  2  0  0  0  0
 38 43  1  0  0  0  0
 39 40  1  0  0  0  0
 39 82  1  0  0  0  0
 40 41  2  0  0  0  0
 40 83  1  0  0  0  0
 41 42  1  0  0  0  0
 41 84  1  0  0  0  0
 42 43  2  0  0  0  0
 42 55  1  0  0  0  0
 43 44  1  0  0  0  0
 44 45  2  0  0  0  0
 44 46  1  0  0  0  0
 46 47  1  0  0  0  0
 46 55  1  0  0  0  0
 47 48  1  0  0  0  0
 47 53  1  0  0  0  0
 47 85  1  0  0  0  0
 48 49  1  0  0  0  0
 48 86  1  0  0  0  0
 48 87  1  0  0  0  0
 49 50  1  0  0  0  0
 49 88  1  0  0  0  0
 49 89  1  0  0  0  0
 50 51  2  0  0  0  0
 50 52  1  0  0  0  0
 52 53  1  0  0  0  0
 52 90  1  0  0  0  0
 53 54  2  0  0  0  0
 55 56  2  0  0  0  0
M  END
$$$$
protac3895RUN2
  chem.cr 07102519423D
protac3895RUN2
 90 96  0  0  0  0  0  0  0  0999 V2000
   -0.3872    1.3524    2.8755 O   0  0  0  0  0  0  0  0  0  0  0  0
    0.3880    0.9175    2.0353 C   0  0  0  0  0  0  0  0  0  0  0  0
    1.1951   -0.3463    2.2273 C   0  0  0  0  0  0  0  0  0  0  0  0
    2.2895   -0.5349    1.2535 N   0  0  0  0  0  0  0  0  0  0  0  0
    3.6148   -0.1665    1.4764 C   0  0  0  0  0  0  0  0  0  0  0  0
    4.4077   -0.6429    0.4886 C   0  0  0  0  0  0  0  0  0  0  0  0
    5.7762   -0.6100    0.4286 C   0  0  0  0  0  0  0  0  0  0  0  0
    6.5932    0.1332    1.2162 C   0  0  0  0  0  0  0  0  0  0  0  0
    6.1996    1.0524    2.1711 C   0  0  0  0  0  0  0  0  0  0  0  0
    6.3845    0.7644    3.5376 C   0  0  0  0  0  0  0  0  0  0  0  0
    5.9451    1.6692    4.5205 C   0  0  0  0  0  0  0  0  0  0  0  0
    5.3269    2.8711    4.1411 C   0  0  0  0  0  0  0  0  0  0  0  0
    4.7650    3.9976    5.3690 Cl  0  0  0  0  0  0  0  0  0  0  0  0
    5.1579    3.1774    2.7818 C   0  0  0  0  0  0  0  0  0  0  0  0
    5.5987    2.2769    1.7977 C   0  0  0  0  0  0  0  0  0  0  0  0
    5.3708    2.6994    0.0994 Cl  0  0  0  0  0  0  0  0  0  0  0  0
    7.8801   -0.0889    0.9449 C   0  0  0  0  0  0  0  0  0  0  0  0
    8.9257    0.3470    1.4099 O   0  0  0  0  0  0  0  0  0  0  0  0
    7.9491   -1.0045   -0.0876 N   0  0  0  0  0  0  0  0  0  0  0  0
    6.6195   -1.3308   -0.3558 C   0  0  0  0  0  0  0  0  0  0  0  0
    6.4719   -2.2543   -1.1434 O   0  0  0  0  0  0  0  0  0  0  0  0
    3.5262   -1.2267   -0.4440 C   0  0  0  0  0  0  0  0  0  0  0  0
    3.6985   -1.5823   -1.8000 C   0  0  0  0  0  0  0  0  0  0  0  0
    2.5838   -2.0227   -2.5469 C   0  0  0  0  0  0  0  0  0  0  0  0
    1.2921   -2.0463   -1.9809 C   0  0  0  0  0  0  0  0  0  0  0  0
    1.0943   -1.5944   -0.6648 C   0  0  0  0  0  0  0  0  0  0  0  0
    2.2218   -1.1875    0.0590 C   0  0  0  0  0  0  0  0  0  0  0  0
    0.3949    1.4832    0.7543 N   0  0  0  0  0  0  0  0  0  0  0  0
   -0.7191    2.2628    0.2014 C   0  0  0  0  0  0  0  0  0  0  0  0
   -0.8494    1.9796   -1.3034 C   0  0  0  0  0  0  0  0  0  0  0  0
    0.3414    2.4776   -1.9462 O   0  0  0  0  0  0  0  0  0  0  0  0
    1.0274    1.5909   -2.8549 C   0  0  0  0  0  0  0  0  0  0  0  0
    0.1256    1.2613   -4.0664 C   0  0  0  0  0  0  0  0  0  0  0  0
   -0.6720    0.1223   -3.7188 O   0  0  0  0  0  0  0  0  0  0  0  0
   -1.8152   -0.1111   -4.5453 C   0  0  0  0  0  0  0  0  0  0  0  0
   -2.5634   -1.3204   -3.9520 C   0  0  0  0  0  0  0  0  0  0  0  0
   -3.0034   -1.0282   -2.5736 N   0  0  0  0  0  0  0  0  0  0  0  0
   -2.8209   -1.8142   -1.4369 C   0  0  0  0  0  0  0  0  0  0  0  0
   -2.1055   -3.0367   -1.4279 C   0  0  0  0  0  0  0  0  0  0  0  0
   -1.9697   -3.8012   -0.2421 C   0  0  0  0  0  0  0  0  0  0  0  0
   -2.5530   -3.3663    0.9640 C   0  0  0  0  0  0  0  0  0  0  0  0
   -3.2580   -2.1596    0.9480 C   0  0  0  0  0  0  0  0  0  0  0  0
   -3.3858   -1.4038   -0.2185 C   0  0  0  0  0  0  0  0  0  0  0  0
   -4.1734   -0.3137    0.0762 C   0  0  0  0  0  0  0  0  0  0  0  0
   -4.5775    0.5521   -0.6920 O   0  0  0  0  0  0  0  0  0  0  0  0
   -4.5887   -0.4139    1.4150 N   0  0  0  0  0  0  0  0  0  0  0  0
   -5.6999    0.3074    2.0776 C   0  0  0  0  0  0  0  0  0  0  0  0
   -7.0528   -0.4109    1.8546 C   0  0  0  0  0  0  0  0  0  0  0  0
   -7.6258   -0.0682    0.4616 C   0  0  0  0  0  0  0  0  0  0  0  0
   -7.7184    1.4278    0.2538 C   0  0  0  0  0  0  0  0  0  0  0  0
   -8.6038    1.9657   -0.3933 O   0  0  0  0  0  0  0  0  0  0  0  0
   -6.8138    2.2665    0.9152 N   0  0  0  0  0  0  0  0  0  0  0  0
   -5.7663    1.7883    1.7174 C   0  0  0  0  0  0  0  0  0  0  0  0
   -5.0711    2.6379    2.2549 O   0  0  0  0  0  0  0  0  0  0  0  0
   -3.9648   -1.5442    1.9538 C   0  0  0  0  0  0  0  0  0  0  0  0
   -4.3233   -2.0367    3.0176 O   0  0  0  0  0  0  0  0  0  0  0  0
    1.6132   -0.3366    3.2396 H   0  0  0  0  0  0  0  0  0  0  0  0
    0.5163   -1.2043    2.1654 H   0  0  0  0  0  0  0  0  0  0  0  0
    3.8598    0.3307    2.4092 H   0  0  0  0  0  0  0  0  0  0  0  0
    6.8609   -0.1662    3.8345 H   0  0  0  0  0  0  0  0  0  0  0  0
    6.0846    1.4409    5.5734 H   0  0  0  0  0  0  0  0  0  0  0  0
    4.6871    4.1122    2.4887 H   0  0  0  0  0  0  0  0  0  0  0  0
    8.7209   -1.6373   -0.2308 H   0  0  0  0  0  0  0  0  0  0  0  0
    4.6432   -1.4659   -2.3125 H   0  0  0  0  0  0  0  0  0  0  0  0
    2.7168   -2.3040   -3.5880 H   0  0  0  0  0  0  0  0  0  0  0  0
    0.4436   -2.3447   -2.5887 H   0  0  0  0  0  0  0  0  0  0  0  0
    0.0956   -1.5175   -0.2454 H   0  0  0  0  0  0  0  0  0  0  0  0
    1.1121    1.1705    0.1086 H   0  0  0  0  0  0  0  0  0  0  0  0
   -0.5363    3.3322    0.3719 H   0  0  0  0  0  0  0  0  0  0  0  0
   -1.6532    1.9904    0.7130 H   0  0  0  0  0  0  0  0  0  0  0  0
   -1.7418    2.4793   -1.7043 H   0  0  0  0  0  0  0  0  0  0  0  0
   -0.9682    0.8968   -1.4367 H   0  0  0  0  0  0  0  0  0  0  0  0
    1.3341    0.6676   -2.3473 H   0  0  0  0  0  0  0  0  0  0  0  0
    1.9383    2.0828   -3.2198 H   0  0  0  0  0  0  0  0  0  0  0  0
    0.7506    1.0295   -4.9378 H   0  0  0  0  0  0  0  0  0  0  0  0
   -0.4959    2.1343   -4.3062 H   0  0  0  0  0  0  0  0  0  0  0  0
   -2.4755    0.7669   -4.5489 H   0  0  0  0  0  0  0  0  0  0  0  0
   -1.5137   -0.3268   -5.5786 H   0  0  0  0  0  0  0  0  0  0  0  0
   -3.4433   -1.5352   -4.5724 H   0  0  0  0  0  0  0  0  0  0  0  0
   -1.9058   -2.1934   -4.0007 H   0  0  0  0  0  0  0  0  0  0  0  0
   -3.4892   -0.1511   -2.4166 H   0  0  0  0  0  0  0  0  0  0  0  0
   -1.6509   -3.4198   -2.3321 H   0  0  0  0  0  0  0  0  0  0  0  0
   -1.4176   -4.7377   -0.2625 H   0  0  0  0  0  0  0  0  0  0  0  0
   -2.4763   -3.9534    1.8770 H   0  0  0  0  0  0  0  0  0  0  0  0
   -5.4884    0.2715    3.1556 H   0  0  0  0  0  0  0  0  0  0  0  0
   -7.7635   -0.0791    2.6237 H   0  0  0  0  0  0  0  0  0  0  0  0
   -6.9386   -1.4966    1.9776 H   0  0  0  0  0  0  0  0  0  0  0  0
   -6.9956   -0.4972   -0.3246 H   0  0  0  0  0  0  0  0  0  0  0  0
   -8.6194   -0.5191    0.3408 H   0  0  0  0  0  0  0  0  0  0  0  0
   -6.8846    3.2618    0.7680 H   0  0  0  0  0  0  0  0  0  0  0  0
  1  2  2  0  0  0  0
  2  3  1  0  0  0  0
  2 28  1  0  0  0  0
  3  4  1  0  0  0  0
  3 57  1  0  0  0  0
  3 58  1  0  0  0  0
  4  5  1  0  0  0  0
  4 27  1  0  0  0  0
  5  6  2  0  0  0  0
  5 59  1  0  0  0  0
  6  7  1  0  0  0  0
  6 22  1  0  0  0  0
  7  8  2  0  0  0  0
  7 20  1  0  0  0  0
  8  9  1  0  0  0  0
  8 17  1  0  0  0  0
  9 10  2  0  0  0  0
  9 15  1  0  0  0  0
 10 11  1  0  0  0  0
 10 60  1  0  0  0  0
 11 12  2  0  0  0  0
 11 61  1  0  0  0  0
 12 13  1  0  0  0  0
 12 14  1  0  0  0  0
 14 15  2  0  0  0  0
 14 62  1  0  0  0  0
 15 16  1  0  0  0  0
 17 18  2  0  0  0  0
 17 19  1  0  0  0  0
 19 20  1  0  0  0  0
 19 63  1  0  0  0  0
 20 21  2  0  0  0  0
 22 23  2  0  0  0  0
 22 27  1  0  0  0  0
 23 24  1  0  0  0  0
 23 64  1  0  0  0  0
 24 25  2  0  0  0  0
 24 65  1  0  0  0  0
 25 26  1  0  0  0  0
 25 66  1  0  0  0  0
 26 27  2  0  0  0  0
 26 67  1  0  0  0  0
 28 29  1  0  0  0  0
 28 68  1  0  0  0  0
 29 30  1  0  0  0  0
 29 69  1  0  0  0  0
 29 70  1  0  0  0  0
 30 31  1  0  0  0  0
 30 71  1  0  0  0  0
 30 72  1  0  0  0  0
 31 32  1  0  0  0  0
 32 33  1  0  0  0  0
 32 73  1  0  0  0  0
 32 74  1  0  0  0  0
 33 34  1  0  0  0  0
 33 75  1  0  0  0  0
 33 76  1  0  0  0  0
 34 35  1  0  0  0  0
 35 36  1  0  0  0  0
 35 77  1  0  0  0  0
 35 78  1  0  0  0  0
 36 37  1  0  0  0  0
 36 79  1  0  0  0  0
 36 80  1  0  0  0  0
 37 38  1  0  0  0  0
 37 81  1  0  0  0  0
 38 39  2  0  0  0  0
 38 43  1  0  0  0  0
 39 40  1  0  0  0  0
 39 82  1  0  0  0  0
 40 41  2  0  0  0  0
 40 83  1  0  0  0  0
 41 42  1  0  0  0  0
 41 84  1  0  0  0  0
 42 43  2  0  0  0  0
 42 55  1  0  0  0  0
 43 44  1  0  0  0  0
 44 45  2  0  0  0  0
 44 46  1  0  0  0  0
 46 47  1  0  0  0  0
 46 55  1  0  0  0  0
 47 48  1  0  0  0  0
 47 53  1  0  0  0  0
 47 85  1  0  0  0  0
 48 49  1  0  0  0  0
 48 86  1  0  0  0  0
 48 87  1  0  0  0  0
 49 50  1  0  0  0  0
 49 88  1  0  0  0  0
 49 89  1  0  0  0  0
 50 51  2  0  0  0  0
 50 52  1  0  0  0  0
 52 53  1  0  0  0  0
 52 90  1  0  0  0  0
 53 54  2  0  0  0  0
 55 56  2  0  0  0  0
M  END
$$$$
protac3895RUN2
  chem.cr 07102519423D
protac3895RUN2
 90 96  0  0  0  0  0  0  0  0999 V2000
   -4.9636   -1.7243   -3.6248 O   0  0  0  0  0  0  0  0  0  0  0  0
   -4.1283   -0.9343   -3.2162 C   0  0  0  0  0  0  0  0  0  0  0  0
   -4.2490    0.5676   -3.3979 C   0  0  0  0  0  0  0  0  0  0  0  0
   -3.9535    1.0282   -4.7667 N   0  0  0  0  0  0  0  0  0  0  0  0
   -2.8471    0.6195   -5.5137 C   0  0  0  0  0  0  0  0  0  0  0  0
   -2.9512    1.0575   -6.7894 C   0  0  0  0  0  0  0  0  0  0  0  0
   -2.1534    0.7215   -7.8493 C   0  0  0  0  0  0  0  0  0  0  0  0
   -0.9398    0.1205   -7.7743 C   0  0  0  0  0  0  0  0  0  0  0  0
   -0.2319   -0.1520   -6.6200 C   0  0  0  0  0  0  0  0  0  0  0  0
   -0.1259   -1.4798   -6.1641 C   0  0  0  0  0  0  0  0  0  0  0  0
    0.5748   -1.7659   -4.9787 C   0  0  0  0  0  0  0  0  0  0  0  0
    1.1851   -0.7294   -4.2547 C   0  0  0  0  0  0  0  0  0  0  0  0
    2.0660   -1.0976   -2.7774 Cl  0  0  0  0  0  0  0  0  0  0  0  0
    1.1033    0.5952   -4.7159 C   0  0  0  0  0  0  0  0  0  0  0  0
    0.3970    0.8861   -5.8960 C   0  0  0  0  0  0  0  0  0  0  0  0
    0.3136    2.5588   -6.4547 Cl  0  0  0  0  0  0  0  0  0  0  0  0
   -0.4187   -0.1009   -8.9803 C   0  0  0  0  0  0  0  0  0  0  0  0
    0.6498   -0.5598   -9.3665 O   0  0  0  0  0  0  0  0  0  0  0  0
   -1.3293    0.3334   -9.9233 N   0  0  0  0  0  0  0  0  0  0  0  0
   -2.3831    0.8621   -9.1815 C   0  0  0  0  0  0  0  0  0  0  0  0
   -3.3271    1.2521   -9.8538 O   0  0  0  0  0  0  0  0  0  0  0  0
   -4.1071    1.8620   -6.8116 C   0  0  0  0  0  0  0  0  0  0  0  0
   -4.5486    2.8389   -7.7296 C   0  0  0  0  0  0  0  0  0  0  0  0
   -5.7098    3.5880   -7.4444 C   0  0  0  0  0  0  0  0  0  0  0  0
   -6.3952    3.4204   -6.2243 C   0  0  0  0  0  0  0  0  0  0  0  0
   -5.8932    2.5362   -5.2530 C   0  0  0  0  0  0  0  0  0  0  0  0
   -4.7491    1.7939   -5.5713 C   0  0  0  0  0  0  0  0  0  0  0  0
   -3.0658   -1.4941   -2.4921 N   0  0  0  0  0  0  0  0  0  0  0  0
   -2.0922   -0.7557   -1.6709 C   0  0  0  0  0  0  0  0  0  0  0  0
   -1.4100   -1.6744   -0.6399 C   0  0  0  0  0  0  0  0  0  0  0  0
   -2.3320   -1.8528    0.4476 O   0  0  0  0  0  0  0  0  0  0  0  0
   -1.8668   -2.6118    1.5836 C   0  0  0  0  0  0  0  0  0  0  0  0
   -0.7171   -1.8480    2.2929 C   0  0  0  0  0  0  0  0  0  0  0  0
   -0.9386   -1.8003    3.7152 O   0  0  0  0  0  0  0  0  0  0  0  0
   -0.8841   -3.0433    4.4370 C   0  0  0  0  0  0  0  0  0  0  0  0
   -0.6798   -2.6835    5.9235 C   0  0  0  0  0  0  0  0  0  0  0  0
    0.6672   -2.1198    6.1100 N   0  0  0  0  0  0  0  0  0  0  0  0
    1.0355   -1.2021    7.0863 C   0  0  0  0  0  0  0  0  0  0  0  0
    0.2682   -0.9558    8.2496 C   0  0  0  0  0  0  0  0  0  0  0  0
    0.6847    0.0030    9.2077 C   0  0  0  0  0  0  0  0  0  0  0  0
    1.8749    0.7368    9.0214 C   0  0  0  0  0  0  0  0  0  0  0  0
    2.6327    0.4758    7.8730 C   0  0  0  0  0  0  0  0  0  0  0  0
    2.2255   -0.4769    6.9382 C   0  0  0  0  0  0  0  0  0  0  0  0
    3.1674   -0.5169    5.9382 C   0  0  0  0  0  0  0  0  0  0  0  0
    3.2956   -1.3553    5.0511 O   0  0  0  0  0  0  0  0  0  0  0  0
    4.1854    0.3907    6.2480 N   0  0  0  0  0  0  0  0  0  0  0  0
    5.3278    0.6995    5.3635 C   0  0  0  0  0  0  0  0  0  0  0  0
    6.6450    0.0887    5.9033 C   0  0  0  0  0  0  0  0  0  0  0  0
    7.4556    1.1076    6.7336 C   0  0  0  0  0  0  0  0  0  0  0  0
    7.6758    2.3839    5.9593 C   0  0  0  0  0  0  0  0  0  0  0  0
    8.7378    2.9881    5.9296 O   0  0  0  0  0  0  0  0  0  0  0  0
    6.6348    2.8659    5.1603 N   0  0  0  0  0  0  0  0  0  0  0  0
    5.4179    2.1846    5.0136 C   0  0  0  0  0  0  0  0  0  0  0  0
    4.5812    2.7513    4.3257 O   0  0  0  0  0  0  0  0  0  0  0  0
    3.8207    1.0269    7.4432 C   0  0  0  0  0  0  0  0  0  0  0  0
    4.4859    1.9083    7.9725 O   0  0  0  0  0  0  0  0  0  0  0  0
   -5.2833    0.8357   -3.1625 H   0  0  0  0  0  0  0  0  0  0  0  0
   -3.6027    1.1170   -2.7080 H   0  0  0  0  0  0  0  0  0  0  0  0
   -2.1417   -0.0694   -5.0587 H   0  0  0  0  0  0  0  0  0  0  0  0
   -0.5955   -2.2835   -6.7272 H   0  0  0  0  0  0  0  0  0  0  0  0
    0.6537   -2.7919   -4.6309 H   0  0  0  0  0  0  0  0  0  0  0  0
    1.5947    1.3956   -4.1699 H   0  0  0  0  0  0  0  0  0  0  0  0
   -1.1027    0.6071  -10.8664 H   0  0  0  0  0  0  0  0  0  0  0  0
   -3.9936    3.0856   -8.6230 H   0  0  0  0  0  0  0  0  0  0  0  0
   -6.0563    4.3298   -8.1607 H   0  0  0  0  0  0  0  0  0  0  0  0
   -7.2799    4.0157   -6.0142 H   0  0  0  0  0  0  0  0  0  0  0  0
   -6.3634    2.4653   -4.2788 H   0  0  0  0  0  0  0  0  0  0  0  0
   -3.0912   -2.5045   -2.4044 H   0  0  0  0  0  0  0  0  0  0  0  0
   -2.5997    0.0483   -1.1195 H   0  0  0  0  0  0  0  0  0  0  0  0
   -1.3274   -0.3128   -2.3236 H   0  0  0  0  0  0  0  0  0  0  0  0
   -0.4929   -1.1854   -0.2918 H   0  0  0  0  0  0  0  0  0  0  0  0
   -1.1384   -2.6349   -1.0995 H   0  0  0  0  0  0  0  0  0  0  0  0
   -1.5262   -3.6103    1.2781 H   0  0  0  0  0  0  0  0  0  0  0  0
   -2.6997   -2.7410    2.2878 H   0  0  0  0  0  0  0  0  0  0  0  0
   -0.6725   -0.8212    1.9103 H   0  0  0  0  0  0  0  0  0  0  0  0
    0.2427   -2.3267    2.0629 H   0  0  0  0  0  0  0  0  0  0  0  0
   -1.8194   -3.6054    4.3171 H   0  0  0  0  0  0  0  0  0  0  0  0
   -0.0516   -3.6697    4.0911 H   0  0  0  0  0  0  0  0  0  0  0  0
   -1.4445   -1.9546    6.2227 H   0  0  0  0  0  0  0  0  0  0  0  0
   -0.7971   -3.5852    6.5397 H   0  0  0  0  0  0  0  0  0  0  0  0
    1.3067   -2.1859    5.3247 H   0  0  0  0  0  0  0  0  0  0  0  0
   -0.6513   -1.5053    8.4203 H   0  0  0  0  0  0  0  0  0  0  0  0
    0.0853    0.1706   10.0981 H   0  0  0  0  0  0  0  0  0  0  0  0
    2.2042    1.4759    9.7477 H   0  0  0  0  0  0  0  0  0  0  0  0
    5.1173    0.1905    4.4121 H   0  0  0  0  0  0  0  0  0  0  0  0
    7.2550   -0.2325    5.0477 H   0  0  0  0  0  0  0  0  0  0  0  0
    6.4281   -0.8113    6.4940 H   0  0  0  0  0  0  0  0  0  0  0  0
    6.9488    1.3418    7.6769 H   0  0  0  0  0  0  0  0  0  0  0  0
    8.4253    0.6756    7.0054 H   0  0  0  0  0  0  0  0  0  0  0  0
    6.7487    3.7606    4.7056 H   0  0  0  0  0  0  0  0  0  0  0  0
  1  2  2  0  0  0  0
  2  3  1  0  0  0  0
  2 28  1  0  0  0  0
  3  4  1  0  0  0  0
  3 57  1  0  0  0  0
  3 58  1  0  0  0  0
  4  5  1  0  0  0  0
  4 27  1  0  0  0  0
  5  6  2  0  0  0  0
  5 59  1  0  0  0  0
  6  7  1  0  0  0  0
  6 22  1  0  0  0  0
  7  8  2  0  0  0  0
  7 20  1  0  0  0  0
  8  9  1  0  0  0  0
  8 17  1  0  0  0  0
  9 10  2  0  0  0  0
  9 15  1  0  0  0  0
 10 11  1  0  0  0  0
 10 60  1  0  0  0  0
 11 12  2  0  0  0  0
 11 61  1  0  0  0  0
 12 13  1  0  0  0  0
 12 14  1  0  0  0  0
 14 15  2  0  0  0  0
 14 62  1  0  0  0  0
 15 16  1  0  0  0  0
 17 18  2  0  0  0  0
 17 19  1  0  0  0  0
 19 20  1  0  0  0  0
 19 63  1  0  0  0  0
 20 21  2  0  0  0  0
 22 23  2  0  0  0  0
 22 27  1  0  0  0  0
 23 24  1  0  0  0  0
 23 64  1  0  0  0  0
 24 25  2  0  0  0  0
 24 65  1  0  0  0  0
 25 26  1  0  0  0  0
 25 66  1  0  0  0  0
 26 27  2  0  0  0  0
 26 67  1  0  0  0  0
 28 29  1  0  0  0  0
 28 68  1  0  0  0  0
 29 30  1  0  0  0  0
 29 69  1  0  0  0  0
 29 70  1  0  0  0  0
 30 31  1  0  0  0  0
 30 71  1  0  0  0  0
 30 72  1  0  0  0  0
 31 32  1  0  0  0  0
 32 33  1  0  0  0  0
 32 73  1  0  0  0  0
 32 74  1  0  0  0  0
 33 34  1  0  0  0  0
 33 75  1  0  0  0  0
 33 76  1  0  0  0  0
 34 35  1  0  0  0  0
 35 36  1  0  0  0  0
 35 77  1  0  0  0  0
 35 78  1  0  0  0  0
 36 37  1  0  0  0  0
 36 79  1  0  0  0  0
 36 80  1  0  0  0  0
 37 38  1  0  0  0  0
 37 81  1  0  0  0  0
 38 39  2  0  0  0  0
 38 43  1  0  0  0  0
 39 40  1  0  0  0  0
 39 82  1  0  0  0  0
 40 41  2  0  0  0  0
 40 83  1  0  0  0  0
 41 42  1  0  0  0  0
 41 84  1  0  0  0  0
 42 43  2  0  0  0  0
 42 55  1  0  0  0  0
 43 44  1  0  0  0  0
 44 45  2  0  0  0  0
 44 46  1  0  0  0  0
 46 47  1  0  0  0  0
 46 55  1  0  0  0  0
 47 48  1  0  0  0  0
 47 53  1  0  0  0  0
 47 85  1  0  0  0  0
 48 49  1  0  0  0  0
 48 86  1  0  0  0  0
 48 87  1  0  0  0  0
 49 50  1  0  0  0  0
 49 88  1  0  0  0  0
 49 89  1  0  0  0  0
 50 51  2  0  0  0  0
 50 52  1  0  0  0  0
 52 53  1  0  0  0  0
 52 90  1  0  0  0  0
 53 54  2  0  0  0  0
 55 56  2  0  0  0  0
M  END
$$$$
protac3895RUN2
  chem.cr 07102519423D
protac3895RUN2
 90 96  0  0  0  0  0  0  0  0999 V2000
   -3.7212    0.7603   -2.7623 O   0  0  0  0  0  0  0  0  0  0  0  0
   -2.7443    0.0443   -2.9360 C   0  0  0  0  0  0  0  0  0  0  0  0
   -1.3376    0.5824   -2.9810 C   0  0  0  0  0  0  0  0  0  0  0  0
   -0.5726    0.1587   -4.1635 N   0  0  0  0  0  0  0  0  0  0  0  0
   -0.7752    0.7363   -5.4185 C   0  0  0  0  0  0  0  0  0  0  0  0
   -0.2705   -0.0533   -6.3923 C   0  0  0  0  0  0  0  0  0  0  0  0
   -0.1270    0.2499   -7.7219 C   0  0  0  0  0  0  0  0  0  0  0  0
   -0.6905    1.2958   -8.3727 C   0  0  0  0  0  0  0  0  0  0  0  0
   -1.5858    2.2167   -7.8534 C   0  0  0  0  0  0  0  0  0  0  0  0
   -1.2008    3.5658   -7.7172 C   0  0  0  0  0  0  0  0  0  0  0  0
   -2.1022    4.5176   -7.2094 C   0  0  0  0  0  0  0  0  0  0  0  0
   -3.3956    4.1259   -6.8296 C   0  0  0  0  0  0  0  0  0  0  0  0
   -4.5266    5.3236   -6.2159 Cl  0  0  0  0  0  0  0  0  0  0  0  0
   -3.7944    2.7872   -6.9656 C   0  0  0  0  0  0  0  0  0  0  0  0
   -2.8999    1.8365   -7.4860 C   0  0  0  0  0  0  0  0  0  0  0  0
   -3.4562    0.1714   -7.6763 Cl  0  0  0  0  0  0  0  0  0  0  0  0
   -0.3055    1.3474   -9.6509 C   0  0  0  0  0  0  0  0  0  0  0  0
   -0.5529    2.1119  -10.5718 O   0  0  0  0  0  0  0  0  0  0  0  0
    0.5370    0.2778   -9.8883 N   0  0  0  0  0  0  0  0  0  0  0  0
    0.6500   -0.3602   -8.6542 C   0  0  0  0  0  0  0  0  0  0  0  0
    1.4864   -1.2519   -8.6199 O   0  0  0  0  0  0  0  0  0  0  0  0
    0.1397   -1.2296   -5.7376 C   0  0  0  0  0  0  0  0  0  0  0  0
    0.4182   -2.5258   -6.2250 C   0  0  0  0  0  0  0  0  0  0  0  0
    0.7043   -3.5625   -5.3092 C   0  0  0  0  0  0  0  0  0  0  0  0
    0.6587   -3.3352   -3.9166 C   0  0  0  0  0  0  0  0  0  0  0  0
    0.2684   -2.0789   -3.4229 C   0  0  0  0  0  0  0  0  0  0  0  0
   -0.0103   -1.0715   -4.3568 C   0  0  0  0  0  0  0  0  0  0  0  0
   -2.8715   -1.3440   -2.7670 N   0  0  0  0  0  0  0  0  0  0  0  0
   -3.9998   -1.9599   -2.0493 C   0  0  0  0  0  0  0  0  0  0  0  0
   -3.7159   -2.0876   -0.5376 C   0  0  0  0  0  0  0  0  0  0  0  0
   -3.2519   -3.4234   -0.2948 O   0  0  0  0  0  0  0  0  0  0  0  0
   -2.9840   -3.7557    1.0799 C   0  0  0  0  0  0  0  0  0  0  0  0
   -1.5978   -3.2113    1.4931 C   0  0  0  0  0  0  0  0  0  0  0  0
   -1.7388   -1.8705    1.9877 O   0  0  0  0  0  0  0  0  0  0  0  0
   -0.5469   -1.3275    2.5672 C   0  0  0  0  0  0  0  0  0  0  0  0
   -0.9095    0.0315    3.1994 C   0  0  0  0  0  0  0  0  0  0  0  0
    0.0982    0.4378    4.1971 N   0  0  0  0  0  0  0  0  0  0  0  0
    0.2215   -0.0957    5.4783 C   0  0  0  0  0  0  0  0  0  0  0  0
   -0.6244   -1.1256    5.9637 C   0  0  0  0  0  0  0  0  0  0  0  0
   -0.4603   -1.6602    7.2654 C   0  0  0  0  0  0  0  0  0  0  0  0
    0.5570   -1.1770    8.1129 C   0  0  0  0  0  0  0  0  0  0  0  0
    1.3865   -0.1587    7.6294 C   0  0  0  0  0  0  0  0  0  0  0  0
    1.2184    0.3723    6.3492 C   0  0  0  0  0  0  0  0  0  0  0  0
    2.1723    1.3491    6.1835 C   0  0  0  0  0  0  0  0  0  0  0  0
    2.3673    2.0713    5.2126 O   0  0  0  0  0  0  0  0  0  0  0  0
    2.9547    1.4198    7.3424 N   0  0  0  0  0  0  0  0  0  0  0  0
    3.9022    2.5186    7.6441 C   0  0  0  0  0  0  0  0  0  0  0  0
    5.2542    2.2815    6.9383 C   0  0  0  0  0  0  0  0  0  0  0  0
    6.0369    1.1729    7.6753 C   0  0  0  0  0  0  0  0  0  0  0  0
    6.1942    1.4790    9.1493 C   0  0  0  0  0  0  0  0  0  0  0  0
    7.1551    1.1204    9.8122 O   0  0  0  0  0  0  0  0  0  0  0  0
    5.2294    2.2666    9.7902 N   0  0  0  0  0  0  0  0  0  0  0  0
    4.0938    2.7755    9.1369 C   0  0  0  0  0  0  0  0  0  0  0  0
    3.3807    3.5273    9.7865 O   0  0  0  0  0  0  0  0  0  0  0  0
    2.4435    0.4730    8.2463 C   0  0  0  0  0  0  0  0  0  0  0  0
    3.1311    0.0109    9.1494 O   0  0  0  0  0  0  0  0  0  0  0  0
   -1.3920    1.6767   -2.9719 H   0  0  0  0  0  0  0  0  0  0  0  0
   -0.8041    0.2674   -2.0791 H   0  0  0  0  0  0  0  0  0  0  0  0
   -1.1826    1.7411   -5.4609 H   0  0  0  0  0  0  0  0  0  0  0  0
   -0.2028    3.8760   -8.0155 H   0  0  0  0  0  0  0  0  0  0  0  0
   -1.8050    5.5588   -7.1176 H   0  0  0  0  0  0  0  0  0  0  0  0
   -4.7990    2.4870   -6.6796 H   0  0  0  0  0  0  0  0  0  0  0  0
    1.2583    0.2678  -10.5912 H   0  0  0  0  0  0  0  0  0  0  0  0
    0.3626   -2.7720   -7.2780 H   0  0  0  0  0  0  0  0  0  0  0  0
    0.9330   -4.5573   -5.6839 H   0  0  0  0  0  0  0  0  0  0  0  0
    0.8764   -4.1466   -3.2280 H   0  0  0  0  0  0  0  0  0  0  0  0
    0.1650   -1.9065   -2.3559 H   0  0  0  0  0  0  0  0  0  0  0  0
   -2.1159   -1.9340   -3.1030 H   0  0  0  0  0  0  0  0  0  0  0  0
   -4.2022   -2.9520   -2.4755 H   0  0  0  0  0  0  0  0  0  0  0  0
   -4.9019   -1.3521   -2.2002 H   0  0  0  0  0  0  0  0  0  0  0  0
   -4.6441   -1.9083    0.0189 H   0  0  0  0  0  0  0  0  0  0  0  0
   -2.9788   -1.3385   -0.2215 H   0  0  0  0  0  0  0  0  0  0  0  0
   -2.9695   -4.8477    1.1927 H   0  0  0  0  0  0  0  0  0  0  0  0
   -3.7634   -3.3623    1.7479 H   0  0  0  0  0  0  0  0  0  0  0  0
   -0.9111   -3.2502    0.6382 H   0  0  0  0  0  0  0  0  0  0  0  0
   -1.1986   -3.8613    2.2810 H   0  0  0  0  0  0  0  0  0  0  0  0
   -0.1673   -2.0041    3.3431 H   0  0  0  0  0  0  0  0  0  0  0  0
    0.2377   -1.1963    1.8109 H   0  0  0  0  0  0  0  0  0  0  0  0
   -0.9770    0.7880    2.4075 H   0  0  0  0  0  0  0  0  0  0  0  0
   -1.8984   -0.0301    3.6724 H   0  0  0  0  0  0  0  0  0  0  0  0
    0.7594    1.1706    3.9556 H   0  0  0  0  0  0  0  0  0  0  0  0
   -1.4184   -1.5222    5.3405 H   0  0  0  0  0  0  0  0  0  0  0  0
   -1.1215   -2.4497    7.6149 H   0  0  0  0  0  0  0  0  0  0  0  0
    0.6951   -1.5738    9.1161 H   0  0  0  0  0  0  0  0  0  0  0  0
    3.4647    3.4347    7.2254 H   0  0  0  0  0  0  0  0  0  0  0  0
    5.8368    3.2140    6.9559 H   0  0  0  0  0  0  0  0  0  0  0  0
    5.0938    2.0150    5.8840 H   0  0  0  0  0  0  0  0  0  0  0  0
    5.5177    0.2114    7.5716 H   0  0  0  0  0  0  0  0  0  0  0  0
    7.0271    1.0481    7.2210 H   0  0  0  0  0  0  0  0  0  0  0  0
    5.3432    2.4581   10.7741 H   0  0  0  0  0  0  0  0  0  0  0  0
  1  2  2  0  0  0  0
  2  3  1  0  0  0  0
  2 28  1  0  0  0  0
  3  4  1  0  0  0  0
  3 57  1  0  0  0  0
  3 58  1  0  0  0  0
  4  5  1  0  0  0  0
  4 27  1  0  0  0  0
  5  6  2  0  0  0  0
  5 59  1  0  0  0  0
  6  7  1  0  0  0  0
  6 22  1  0  0  0  0
  7  8  2  0  0  0  0
  7 20  1  0  0  0  0
  8  9  1  0  0  0  0
  8 17  1  0  0  0  0
  9 10  2  0  0  0  0
  9 15  1  0  0  0  0
 10 11  1  0  0  0  0
 10 60  1  0  0  0  0
 11 12  2  0  0  0  0
 11 61  1  0  0  0  0
 12 13  1  0  0  0  0
 12 14  1  0  0  0  0
 14 15  2  0  0  0  0
 14 62  1  0  0  0  0
 15 16  1  0  0  0  0
 17 18  2  0  0  0  0
 17 19  1  0  0  0  0
 19 20  1  0  0  0  0
 19 63  1  0  0  0  0
 20 21  2  0  0  0  0
 22 23  2  0  0  0  0
 22 27  1  0  0  0  0
 23 24  1  0  0  0  0
 23 64  1  0  0  0  0
 24 25  2  0  0  0  0
 24 65  1  0  0  0  0
 25 26  1  0  0  0  0
 25 66  1  0  0  0  0
 26 27  2  0  0  0  0
 26 67  1  0  0  0  0
 28 29  1  0  0  0  0
 28 68  1  0  0  0  0
 29 30  1  0  0  0  0
 29 69  1  0  0  0  0
 29 70  1  0  0  0  0
 30 31  1  0  0  0  0
 30 71  1  0  0  0  0
 30 72  1  0  0  0  0
 31 32  1  0  0  0  0
 32 33  1  0  0  0  0
 32 73  1  0  0  0  0
 32 74  1  0  0  0  0
 33 34  1  0  0  0  0
 33 75  1  0  0  0  0
 33 76  1  0  0  0  0
 34 35  1  0  0  0  0
 35 36  1  0  0  0  0
 35 77  1  0  0  0  0
 35 78  1  0  0  0  0
 36 37  1  0  0  0  0
 36 79  1  0  0  0  0
 36 80  1  0  0  0  0
 37 38  1  0  0  0  0
 37 81  1  0  0  0  0
 38 39  2  0  0  0  0
 38 43  1  0  0  0  0
 39 40  1  0  0  0  0
 39 82  1  0  0  0  0
 40 41  2  0  0  0  0
 40 83  1  0  0  0  0
 41 42  1  0  0  0  0
 41 84  1  0  0  0  0
 42 43  2  0  0  0  0
 42 55  1  0  0  0  0
 43 44  1  0  0  0  0
 44 45  2  0  0  0  0
 44 46  1  0  0  0  0
 46 47  1  0  0  0  0
 46 55  1  0  0  0  0
 47 48  1  0  0  0  0
 47 53  1  0  0  0  0
 47 85  1  0  0  0  0
 48 49  1  0  0  0  0
 48 86  1  0  0  0  0
 48 87  1  0  0  0  0
 49 50  1  0  0  0  0
 49 88  1  0  0  0  0
 49 89  1  0  0  0  0
 50 51  2  0  0  0  0
 50 52  1  0  0  0  0
 52 53  1  0  0  0  0
 52 90  1  0  0  0  0
 53 54  2  0  0  0  0
 55 56  2  0  0  0  0
M  END
$$$$
protac3895RUN2
  chem.cr 07102519423D
protac3895RUN2
 90 96  0  0  0  0  0  0  0  0999 V2000
    2.9179   -2.1538   -1.3227 O   0  0  0  0  0  0  0  0  0  0  0  0
    2.6019   -1.1222   -1.8928 C   0  0  0  0  0  0  0  0  0  0  0  0
    3.1983   -0.6924   -3.2208 C   0  0  0  0  0  0  0  0  0  0  0  0
    2.2795   -0.7772   -4.3730 N   0  0  0  0  0  0  0  0  0  0  0  0
    1.2119   -1.6612   -4.4624 C   0  0  0  0  0  0  0  0  0  0  0  0
    0.6403   -1.6282   -5.6919 C   0  0  0  0  0  0  0  0  0  0  0  0
   -0.4200   -2.3993   -6.1179 C   0  0  0  0  0  0  0  0  0  0  0  0
   -1.1821   -3.2066   -5.3296 C   0  0  0  0  0  0  0  0  0  0  0  0
   -1.0514   -3.4060   -3.9692 C   0  0  0  0  0  0  0  0  0  0  0  0
   -1.5006   -2.4184   -3.0704 C   0  0  0  0  0  0  0  0  0  0  0  0
   -1.2883   -2.5695   -1.6890 C   0  0  0  0  0  0  0  0  0  0  0  0
   -0.6542   -3.7230   -1.2004 C   0  0  0  0  0  0  0  0  0  0  0  0
   -0.3635   -3.9001    0.5232 Cl  0  0  0  0  0  0  0  0  0  0  0  0
   -0.2397   -4.7293   -2.0864 C   0  0  0  0  0  0  0  0  0  0  0  0
   -0.4285   -4.5721   -3.4691 C   0  0  0  0  0  0  0  0  0  0  0  0
    0.1629   -5.8301   -4.5584 Cl  0  0  0  0  0  0  0  0  0  0  0  0
   -2.1314   -3.8421   -6.0165 C   0  0  0  0  0  0  0  0  0  0  0  0
   -2.9994   -4.6456   -5.7059 O   0  0  0  0  0  0  0  0  0  0  0  0
   -2.0383   -3.4445   -7.3332 N   0  0  0  0  0  0  0  0  0  0  0  0
   -0.9388   -2.5883   -7.3639 C   0  0  0  0  0  0  0  0  0  0  0  0
   -0.6216   -2.2399   -8.4905 O   0  0  0  0  0  0  0  0  0  0  0  0
    1.3978   -0.6617   -6.4077 C   0  0  0  0  0  0  0  0  0  0  0  0
    1.2551   -0.0541   -7.6792 C   0  0  0  0  0  0  0  0  0  0  0  0
    2.1929    0.9138   -8.1055 C   0  0  0  0  0  0  0  0  0  0  0  0
    3.2419    1.3335   -7.2639 C   0  0  0  0  0  0  0  0  0  0  0  0
    3.3493    0.8046   -5.9688 C   0  0  0  0  0  0  0  0  0  0  0  0
    2.4225   -0.1721   -5.5818 C   0  0  0  0  0  0  0  0  0  0  0  0
    1.6585   -0.3147   -1.2393 N   0  0  0  0  0  0  0  0  0  0  0  0
    1.0376    0.8914   -1.8086 C   0  0  0  0  0  0  0  0  0  0  0  0
    0.3345    1.7365   -0.7263 C   0  0  0  0  0  0  0  0  0  0  0  0
   -0.8010    1.0006   -0.2497 O   0  0  0  0  0  0  0  0  0  0  0  0
   -1.6444    1.7299    0.6600 C   0  0  0  0  0  0  0  0  0  0  0  0
   -2.8680    0.8480    0.9907 C   0  0  0  0  0  0  0  0  0  0  0  0
   -4.0069    1.6962    1.2486 O   0  0  0  0  0  0  0  0  0  0  0  0
   -4.0360    2.4248    2.4918 C   0  0  0  0  0  0  0  0  0  0  0  0
   -4.6833    1.5448    3.5836 C   0  0  0  0  0  0  0  0  0  0  0  0
   -3.6725    0.7459    4.2960 N   0  0  0  0  0  0  0  0  0  0  0  0
   -3.1550    1.1230    5.5288 C   0  0  0  0  0  0  0  0  0  0  0  0
   -3.9649    1.6008    6.5868 C   0  0  0  0  0  0  0  0  0  0  0  0
   -3.3901    2.0247    7.8119 C   0  0  0  0  0  0  0  0  0  0  0  0
   -1.9916    1.9906    7.9970 C   0  0  0  0  0  0  0  0  0  0  0  0
   -1.2042    1.4966    6.9495 C   0  0  0  0  0  0  0  0  0  0  0  0
   -1.7751    1.0569    5.7561 C   0  0  0  0  0  0  0  0  0  0  0  0
   -0.7560    0.6629    4.9237 C   0  0  0  0  0  0  0  0  0  0  0  0
   -0.8287    0.1957    3.7927 O   0  0  0  0  0  0  0  0  0  0  0  0
    0.4622    0.8464    5.5805 N   0  0  0  0  0  0  0  0  0  0  0  0
    1.7486    0.9717    4.8672 C   0  0  0  0  0  0  0  0  0  0  0  0
    2.8938    0.2443    5.6041 C   0  0  0  0  0  0  0  0  0  0  0  0
    4.1967    0.3904    4.7891 C   0  0  0  0  0  0  0  0  0  0  0  0
    4.4957    1.8326    4.4415 C   0  0  0  0  0  0  0  0  0  0  0  0
    5.6142    2.2343    4.1607 O   0  0  0  0  0  0  0  0  0  0  0  0
    3.4346    2.7249    4.2407 N   0  0  0  0  0  0  0  0  0  0  0  0
    2.1049    2.4212    4.5603 C   0  0  0  0  0  0  0  0  0  0  0  0
    1.2787    3.2667    4.2409 O   0  0  0  0  0  0  0  0  0  0  0  0
    0.1623    1.3765    6.8461 C   0  0  0  0  0  0  0  0  0  0  0  0
    1.0150    1.8392    7.5960 O   0  0  0  0  0  0  0  0  0  0  0  0
    3.5699    0.3319   -3.1303 H   0  0  0  0  0  0  0  0  0  0  0  0
    4.0590   -1.3361   -3.4369 H   0  0  0  0  0  0  0  0  0  0  0  0
    1.0125   -2.2841   -3.5984 H   0  0  0  0  0  0  0  0  0  0  0  0
   -1.9788   -1.5200   -3.4526 H   0  0  0  0  0  0  0  0  0  0  0  0
   -1.6026   -1.7895   -1.0008 H   0  0  0  0  0  0  0  0  0  0  0  0
    0.2417   -5.6263   -1.7063 H   0  0  0  0  0  0  0  0  0  0  0  0
   -2.3444   -4.0039   -8.1152 H   0  0  0  0  0  0  0  0  0  0  0  0
    0.4330   -0.2599   -8.3420 H   0  0  0  0  0  0  0  0  0  0  0  0
    2.0920    1.3562   -9.0925 H   0  0  0  0  0  0  0  0  0  0  0  0
    3.9484    2.0873   -7.6041 H   0  0  0  0  0  0  0  0  0  0  0  0
    4.1251    1.1482   -5.2926 H   0  0  0  0  0  0  0  0  0  0  0  0
    1.2943   -0.6666   -0.3603 H   0  0  0  0  0  0  0  0  0  0  0  0
    0.3019    0.5933   -2.5701 H   0  0  0  0  0  0  0  0  0  0  0  0
    1.8020    1.5101   -2.2962 H   0  0  0  0  0  0  0  0  0  0  0  0
    0.0154    2.6896   -1.1683 H   0  0  0  0  0  0  0  0  0  0  0  0
    1.0281    1.9545    0.0960 H   0  0  0  0  0  0  0  0  0  0  0  0
   -1.9967    2.6571    0.1901 H   0  0  0  0  0  0  0  0  0  0  0  0
   -1.1077    1.9890    1.5822 H   0  0  0  0  0  0  0  0  0  0  0  0
   -2.6453    0.1903    1.8389 H   0  0  0  0  0  0  0  0  0  0  0  0
   -3.0879    0.2108    0.1261 H   0  0  0  0  0  0  0  0  0  0  0  0
   -3.0401    2.7694    2.8018 H   0  0  0  0  0  0  0  0  0  0  0  0
   -4.6585    3.3184    2.3604 H   0  0  0  0  0  0  0  0  0  0  0  0
   -5.2111    2.2006    4.2827 H   0  0  0  0  0  0  0  0  0  0  0  0
   -5.4301    0.8865    3.1221 H   0  0  0  0  0  0  0  0  0  0  0  0
   -3.0148    0.2451    3.7096 H   0  0  0  0  0  0  0  0  0  0  0  0
   -5.0430    1.6333    6.4694 H   0  0  0  0  0  0  0  0  0  0  0  0
   -4.0280    2.3793    8.6156 H   0  0  0  0  0  0  0  0  0  0  0  0
   -1.5318    2.3303    8.9226 H   0  0  0  0  0  0  0  0  0  0  0  0
    1.6249    0.4810    3.8928 H   0  0  0  0  0  0  0  0  0  0  0  0
    2.6393   -0.8135    5.7494 H   0  0  0  0  0  0  0  0  0  0  0  0
    3.0371    0.6837    6.5995 H   0  0  0  0  0  0  0  0  0  0  0  0
    5.0408   -0.0251    5.3560 H   0  0  0  0  0  0  0  0  0  0  0  0
    4.1296   -0.1939    3.8618 H   0  0  0  0  0  0  0  0  0  0  0  0
    3.6467    3.6568    3.9212 H   0  0  0  0  0  0  0  0  0  0  0  0
  1  2  2  0  0  0  0
  2  3  1  0  0  0  0
  2 28  1  0  0  0  0
  3  4  1  0  0  0  0
  3 57  1  0  0  0  0
  3 58  1  0  0  0  0
  4  5  1  0  0  0  0
  4 27  1  0  0  0  0
  5  6  2  0  0  0  0
  5 59  1  0  0  0  0
  6  7  1  0  0  0  0
  6 22  1  0  0  0  0
  7  8  2  0  0  0  0
  7 20  1  0  0  0  0
  8  9  1  0  0  0  0
  8 17  1  0  0  0  0
  9 10  2  0  0  0  0
  9 15  1  0  0  0  0
 10 11  1  0  0  0  0
 10 60  1  0  0  0  0
 11 12  2  0  0  0  0
 11 61  1  0  0  0  0
 12 13  1  0  0  0  0
 12 14  1  0  0  0  0
 14 15  2  0  0  0  0
 14 62  1  0  0  0  0
 15 16  1  0  0  0  0
 17 18  2  0  0  0  0
 17 19  1  0  0  0  0
 19 20  1  0  0  0  0
 19 63  1  0  0  0  0
 20 21  2  0  0  0  0
 22 23  2  0  0  0  0
 22 27  1  0  0  0  0
 23 24  1  0  0  0  0
 23 64  1  0  0  0  0
 24 25  2  0  0  0  0
 24 65  1  0  0  0  0
 25 26  1  0  0  0  0
 25 66  1  0  0  0  0
 26 27  2  0  0  0  0
 26 67  1  0  0  0  0
 28 29  1  0  0  0  0
 28 68  1  0  0  0  0
 29 30  1  0  0  0  0
 29 69  1  0  0  0  0
 29 70  1  0  0  0  0
 30 31  1  0  0  0  0
 30 71  1  0  0  0  0
 30 72  1  0  0  0  0
 31 32  1  0  0  0  0
 32 33  1  0  0  0  0
 32 73  1  0  0  0  0
 32 74  1  0  0  0  0
 33 34  1  0  0  0  0
 33 75  1  0  0  0  0
 33 76  1  0  0  0  0
 34 35  1  0  0  0  0
 35 36  1  0  0  0  0
 35 77  1  0  0  0  0
 35 78  1  0  0  0  0
 36 37  1  0  0  0  0
 36 79  1  0  0  0  0
 36 80  1  0  0  0  0
 37 38  1  0  0  0  0
 37 81  1  0  0  0  0
 38 39  2  0  0  0  0
 38 43  1  0  0  0  0
 39 40  1  0  0  0  0
 39 82  1  0  0  0  0
 40 41  2  0  0  0  0
 40 83  1  0  0  0  0
 41 42  1  0  0  0  0
 41 84  1  0  0  0  0
 42 43  2  0  0  0  0
 42 55  1  0  0  0  0
 43 44  1  0  0  0  0
 44 45  2  0  0  0  0
 44 46  1  0  0  0  0
 46 47  1  0  0  0  0
 46 55  1  0  0  0  0
 47 48  1  0  0  0  0
 47 53  1  0  0  0  0
 47 85  1  0  0  0  0
 48 49  1  0  0  0  0
 48 86  1  0  0  0  0
 48 87  1  0  0  0  0
 49 50  1  0  0  0  0
 49 88  1  0  0  0  0
 49 89  1  0  0  0  0
 50 51  2  0  0  0  0
 50 52  1  0  0  0  0
 52 53  1  0  0  0  0
 52 90  1  0  0  0  0
 53 54  2  0  0  0  0
 55 56  2  0  0  0  0
M  END
$$$$
protac3895RUN2
  chem.cr 07102519423D
protac3895RUN2
 90 96  0  0  0  0  0  0  0  0999 V2000
   -3.6662   -3.4608   -1.2623 O   0  0  0  0  0  0  0  0  0  0  0  0
   -2.5423   -2.9811   -1.2803 C   0  0  0  0  0  0  0  0  0  0  0  0
   -2.1401   -1.8786   -2.2250 C   0  0  0  0  0  0  0  0  0  0  0  0
   -0.7684   -2.0153   -2.7457 N   0  0  0  0  0  0  0  0  0  0  0  0
   -0.4860   -2.9719   -3.7256 C   0  0  0  0  0  0  0  0  0  0  0  0
    0.5731   -2.5986   -4.4798 C   0  0  0  0  0  0  0  0  0  0  0  0
    1.2365   -3.3476   -5.4172 C   0  0  0  0  0  0  0  0  0  0  0  0
    0.8030   -4.5110   -5.9617 C   0  0  0  0  0  0  0  0  0  0  0  0
   -0.4191   -5.1162   -5.7492 C   0  0  0  0  0  0  0  0  0  0  0  0
   -1.5508   -4.6482   -6.4438 C   0  0  0  0  0  0  0  0  0  0  0  0
   -2.8020   -5.2586   -6.2536 C   0  0  0  0  0  0  0  0  0  0  0  0
   -2.9248   -6.3393   -5.3656 C   0  0  0  0  0  0  0  0  0  0  0  0
   -4.4891   -7.1051   -5.1257 Cl  0  0  0  0  0  0  0  0  0  0  0  0
   -1.7992   -6.8136   -4.6722 C   0  0  0  0  0  0  0  0  0  0  0  0
   -0.5469   -6.2085   -4.8651 C   0  0  0  0  0  0  0  0  0  0  0  0
    0.8441   -6.8099   -3.9648 Cl  0  0  0  0  0  0  0  0  0  0  0  0
    1.6793   -5.0162   -6.8314 C   0  0  0  0  0  0  0  0  0  0  0  0
    1.6687   -5.9952   -7.5660 O   0  0  0  0  0  0  0  0  0  0  0  0
    2.7782   -4.1819   -6.8519 N   0  0  0  0  0  0  0  0  0  0  0  0
    2.4588   -3.1456   -5.9781 C   0  0  0  0  0  0  0  0  0  0  0  0
    3.3544   -2.3295   -5.8171 O   0  0  0  0  0  0  0  0  0  0  0  0
    0.8899   -1.2997   -4.0420 C   0  0  0  0  0  0  0  0  0  0  0  0
    1.6571   -0.2714   -4.6298 C   0  0  0  0  0  0  0  0  0  0  0  0
    1.7227    0.9920   -4.0040 C   0  0  0  0  0  0  0  0  0  0  0  0
    0.9888    1.2586   -2.8305 C   0  0  0  0  0  0  0  0  0  0  0  0
    0.1352    0.2736   -2.3005 C   0  0  0  0  0  0  0  0  0  0  0  0
    0.0901   -0.9701   -2.9454 C   0  0  0  0  0  0  0  0  0  0  0  0
   -1.7266   -3.1278   -0.1512 N   0  0  0  0  0  0  0  0  0  0  0  0
   -2.2821   -3.2322    1.2061 C   0  0  0  0  0  0  0  0  0  0  0  0
   -2.8619   -1.8857    1.6852 C   0  0  0  0  0  0  0  0  0  0  0  0
   -1.8141   -0.9044    1.6080 O   0  0  0  0  0  0  0  0  0  0  0  0
   -2.1887    0.4481    1.9160 C   0  0  0  0  0  0  0  0  0  0  0  0
   -2.9076    1.0654    0.6877 C   0  0  0  0  0  0  0  0  0  0  0  0
   -3.3628    2.4104    0.9681 O   0  0  0  0  0  0  0  0  0  0  0  0
   -2.4260    3.3730    1.4945 C   0  0  0  0  0  0  0  0  0  0  0  0
   -1.2983    3.6661    0.4744 C   0  0  0  0  0  0  0  0  0  0  0  0
   -0.0787    4.0417    1.2012 N   0  0  0  0  0  0  0  0  0  0  0  0
    0.7498    3.0721    1.7501 C   0  0  0  0  0  0  0  0  0  0  0  0
    1.2357    1.9790    0.9994 C   0  0  0  0  0  0  0  0  0  0  0  0
    2.0698    1.0003    1.5899 C   0  0  0  0  0  0  0  0  0  0  0  0
    2.4323    1.0962    2.9499 C   0  0  0  0  0  0  0  0  0  0  0  0
    1.9427    2.1837    3.6842 C   0  0  0  0  0  0  0  0  0  0  0  0
    1.1204    3.1433    3.0956 C   0  0  0  0  0  0  0  0  0  0  0  0
    0.7912    4.0643    4.0573 C   0  0  0  0  0  0  0  0  0  0  0  0
   -0.0442    4.9598    3.9983 O   0  0  0  0  0  0  0  0  0  0  0  0
    1.4256    3.7084    5.2502 N   0  0  0  0  0  0  0  0  0  0  0  0
    1.2417    4.4230    6.5361 C   0  0  0  0  0  0  0  0  0  0  0  0
    1.8624    5.8355    6.4625 C   0  0  0  0  0  0  0  0  0  0  0  0
    3.4020    5.7153    6.4482 C   0  0  0  0  0  0  0  0  0  0  0  0
    3.9198    4.8832    7.6042 C   0  0  0  0  0  0  0  0  0  0  0  0
    5.0225    5.0459    8.1049 O   0  0  0  0  0  0  0  0  0  0  0  0
    3.0655    3.9612    8.2241 N   0  0  0  0  0  0  0  0  0  0  0  0
    1.7738    3.6759    7.7531 C   0  0  0  0  0  0  0  0  0  0  0  0
    1.0896    2.9290    8.4395 O   0  0  0  0  0  0  0  0  0  0  0  0
    2.1396    2.5185    5.0046 C   0  0  0  0  0  0  0  0  0  0  0  0
    3.0665    2.1418    5.7125 O   0  0  0  0  0  0  0  0  0  0  0  0
   -2.8399   -1.8612   -3.0699 H   0  0  0  0  0  0  0  0  0  0  0  0
   -2.2401   -0.9262   -1.6956 H   0  0  0  0  0  0  0  0  0  0  0  0
   -1.0417   -3.9040   -3.6952 H   0  0  0  0  0  0  0  0  0  0  0  0
   -1.4516   -3.8127   -7.1329 H   0  0  0  0  0  0  0  0  0  0  0  0
   -3.6716   -4.9014   -6.7977 H   0  0  0  0  0  0  0  0  0  0  0  0
   -1.8949   -7.6530   -3.9900 H   0  0  0  0  0  0  0  0  0  0  0  0
    3.4718   -4.1437   -7.5812 H   0  0  0  0  0  0  0  0  0  0  0  0
    2.1555   -0.3926   -5.5796 H   0  0  0  0  0  0  0  0  0  0  0  0
    2.3303    1.7762   -4.4494 H   0  0  0  0  0  0  0  0  0  0  0  0
    1.0497    2.2437   -2.3735 H   0  0  0  0  0  0  0  0  0  0  0  0
   -0.4832    0.4779   -1.4354 H   0  0  0  0  0  0  0  0  0  0  0  0
   -0.7639   -2.8276   -0.2402 H   0  0  0  0  0  0  0  0  0  0  0  0
   -1.4911   -3.5577    1.8952 H   0  0  0  0  0  0  0  0  0  0  0  0
   -3.0725   -3.9954    1.2156 H   0  0  0  0  0  0  0  0  0  0  0  0
   -3.2197   -1.9885    2.7184 H   0  0  0  0  0  0  0  0  0  0  0  0
   -3.7134   -1.6165    1.0491 H   0  0  0  0  0  0  0  0  0  0  0  0
   -1.2792    1.0211    2.1334 H   0  0  0  0  0  0  0  0  0  0  0  0
   -2.8372    0.4923    2.8008 H   0  0  0  0  0  0  0  0  0  0  0  0
   -3.7734    0.4473    0.4243 H   0  0  0  0  0  0  0  0  0  0  0  0
   -2.2339    1.0479   -0.1732 H   0  0  0  0  0  0  0  0  0  0  0  0
   -2.9458    4.3119    1.7277 H   0  0  0  0  0  0  0  0  0  0  0  0
   -2.0060    3.0173    2.4434 H   0  0  0  0  0  0  0  0  0  0  0  0
   -1.1011    2.7970   -0.1588 H   0  0  0  0  0  0  0  0  0  0  0  0
   -1.6134    4.4858   -0.1829 H   0  0  0  0  0  0  0  0  0  0  0  0
   -0.1476    4.8836    1.7658 H   0  0  0  0  0  0  0  0  0  0  0  0
    0.9821    1.8936   -0.0483 H   0  0  0  0  0  0  0  0  0  0  0  0
    2.4385    0.1730    0.9894 H   0  0  0  0  0  0  0  0  0  0  0  0
    3.0717    0.3518    3.4184 H   0  0  0  0  0  0  0  0  0  0  0  0
    0.1590    4.5341    6.6859 H   0  0  0  0  0  0  0  0  0  0  0  0
    1.5440    6.4126    7.3417 H   0  0  0  0  0  0  0  0  0  0  0  0
    1.5049    6.3736    5.5741 H   0  0  0  0  0  0  0  0  0  0  0  0
    3.7332    5.2583    5.5056 H   0  0  0  0  0  0  0  0  0  0  0  0
    3.8569    6.7126    6.4902 H   0  0  0  0  0  0  0  0  0  0  0  0
    3.4186    3.4287    9.0052 H   0  0  0  0  0  0  0  0  0  0  0  0
  1  2  2  0  0  0  0
  2  3  1  0  0  0  0
  2 28  1  0  0  0  0
  3  4  1  0  0  0  0
  3 57  1  0  0  0  0
  3 58  1  0  0  0  0
  4  5  1  0  0  0  0
  4 27  1  0  0  0  0
  5  6  2  0  0  0  0
  5 59  1  0  0  0  0
  6  7  1  0  0  0  0
  6 22  1  0  0  0  0
  7  8  2  0  0  0  0
  7 20  1  0  0  0  0
  8  9  1  0  0  0  0
  8 17  1  0  0  0  0
  9 10  2  0  0  0  0
  9 15  1  0  0  0  0
 10 11  1  0  0  0  0
 10 60  1  0  0  0  0
 11 12  2  0  0  0  0
 11 61  1  0  0  0  0
 12 13  1  0  0  0  0
 12 14  1  0  0  0  0
 14 15  2  0  0  0  0
 14 62  1  0  0  0  0
 15 16  1  0  0  0  0
 17 18  2  0  0  0  0
 17 19  1  0  0  0  0
 19 20  1  0  0  0  0
 19 63  1  0  0  0  0
 20 21  2  0  0  0  0
 22 23  2  0  0  0  0
 22 27  1  0  0  0  0
 23 24  1  0  0  0  0
 23 64  1  0  0  0  0
 24 25  2  0  0  0  0
 24 65  1  0  0  0  0
 25 26  1  0  0  0  0
 25 66  1  0  0  0  0
 26 27  2  0  0  0  0
 26 67  1  0  0  0  0
 28 29  1  0  0  0  0
 28 68  1  0  0  0  0
 29 30  1  0  0  0  0
 29 69  1  0  0  0  0
 29 70  1  0  0  0  0
 30 31  1  0  0  0  0
 30 71  1  0  0  0  0
 30 72  1  0  0  0  0
 31 32  1  0  0  0  0
 32 33  1  0  0  0  0
 32 73  1  0  0  0  0
 32 74  1  0  0  0  0
 33 34  1  0  0  0  0
 33 75  1  0  0  0  0
 33 76  1  0  0  0  0
 34 35  1  0  0  0  0
 35 36  1  0  0  0  0
 35 77  1  0  0  0  0
 35 78  1  0  0  0  0
 36 37  1  0  0  0  0
 36 79  1  0  0  0  0
 36 80  1  0  0  0  0
 37 38  1  0  0  0  0
 37 81  1  0  0  0  0
 38 39  2  0  0  0  0
 38 43  1  0  0  0  0
 39 40  1  0  0  0  0
 39 82  1  0  0  0  0
 40 41  2  0  0  0  0
 40 83  1  0  0  0  0
 41 42  1  0  0  0  0
 41 84  1  0  0  0  0
 42 43  2  0  0  0  0
 42 55  1  0  0  0  0
 43 44  1  0  0  0  0
 44 45  2  0  0  0  0
 44 46  1  0  0  0  0
 46 47  1  0  0  0  0
 46 55  1  0  0  0  0
 47 48  1  0  0  0  0
 47 53  1  0  0  0  0
 47 85  1  0  0  0  0
 48 49  1  0  0  0  0
 48 86  1  0  0  0  0
 48 87  1  0  0  0  0
 49 50  1  0  0  0  0
 49 88  1  0  0  0  0
 49 89  1  0  0  0  0
 50 51  2  0  0  0  0
 50 52  1  0  0  0  0
 52 53  1  0  0  0  0
 52 90  1  0  0  0  0
 53 54  2  0  0  0  0
 55 56  2  0  0  0  0
M  END
$$$$
protac3895RUN2
  chem.cr 07102519423D
protac3895RUN2
 90 96  0  0  0  0  0  0  0  0999 V2000
   -3.7035   -3.8055   -1.5746 O   0  0  0  0  0  0  0  0  0  0  0  0
   -3.1812   -2.7518   -1.9158 C   0  0  0  0  0  0  0  0  0  0  0  0
   -3.7689   -1.8209   -2.9592 C   0  0  0  0  0  0  0  0  0  0  0  0
   -2.7870   -1.3666   -3.9659 N   0  0  0  0  0  0  0  0  0  0  0  0
   -2.0056   -2.3528   -4.5765 C   0  0  0  0  0  0  0  0  0  0  0  0
   -0.6992   -2.0033   -4.6165 C   0  0  0  0  0  0  0  0  0  0  0  0
    0.3671   -2.8072   -4.9363 C   0  0  0  0  0  0  0  0  0  0  0  0
    0.3039   -4.0778   -5.4096 C   0  0  0  0  0  0  0  0  0  0  0  0
   -0.8370   -4.8169   -5.6525 C   0  0  0  0  0  0  0  0  0  0  0  0
   -1.4574   -4.7642   -6.9148 C   0  0  0  0  0  0  0  0  0  0  0  0
   -2.6472   -5.4759   -7.1512 C   0  0  0  0  0  0  0  0  0  0  0  0
   -3.2113   -6.2555   -6.1299 C   0  0  0  0  0  0  0  0  0  0  0  0
   -4.7068   -7.1337   -6.4214 Cl  0  0  0  0  0  0  0  0  0  0  0  0
   -2.5864   -6.3322   -4.8747 C   0  0  0  0  0  0  0  0  0  0  0  0
   -1.4008   -5.6169   -4.6338 C   0  0  0  0  0  0  0  0  0  0  0  0
   -0.6617   -5.7010   -3.0331 Cl  0  0  0  0  0  0  0  0  0  0  0  0
    1.5134   -4.6129   -5.5765 C   0  0  0  0  0  0  0  0  0  0  0  0
    1.9024   -5.7167   -5.9360 O   0  0  0  0  0  0  0  0  0  0  0  0
    2.4542   -3.6666   -5.2282 N   0  0  0  0  0  0  0  0  0  0  0  0
    1.7009   -2.5816   -4.7802 C   0  0  0  0  0  0  0  0  0  0  0  0
    2.3648   -1.6988   -4.2584 O   0  0  0  0  0  0  0  0  0  0  0  0
   -0.6772   -0.6670   -4.1712 C   0  0  0  0  0  0  0  0  0  0  0  0
    0.2919    0.3560   -4.2638 C   0  0  0  0  0  0  0  0  0  0  0  0
   -0.0019    1.6443   -3.7613 C   0  0  0  0  0  0  0  0  0  0  0  0
   -1.2736    1.9437   -3.2311 C   0  0  0  0  0  0  0  0  0  0  0  0
   -2.2812    0.9659   -3.2448 C   0  0  0  0  0  0  0  0  0  0  0  0
   -1.9567   -0.3062   -3.7325 C   0  0  0  0  0  0  0  0  0  0  0  0
   -1.9266   -2.3971   -1.3952 N   0  0  0  0  0  0  0  0  0  0  0  0
   -1.2542   -3.1058   -0.2949 C   0  0  0  0  0  0  0  0  0  0  0  0
   -2.0032   -2.9682    1.0445 C   0  0  0  0  0  0  0  0  0  0  0  0
   -2.2973   -1.5782    1.2565 O   0  0  0  0  0  0  0  0  0  0  0  0
   -3.6888   -1.2966    1.4625 C   0  0  0  0  0  0  0  0  0  0  0  0
   -3.9031    0.2296    1.5316 C   0  0  0  0  0  0  0  0  0  0  0  0
   -3.6360    0.7112    2.8649 O   0  0  0  0  0  0  0  0  0  0  0  0
   -2.2641    0.8431    3.2848 C   0  0  0  0  0  0  0  0  0  0  0  0
   -1.6090    1.9861    2.4817 C   0  0  0  0  0  0  0  0  0  0  0  0
   -0.4651    2.5536    3.2124 N   0  0  0  0  0  0  0  0  0  0  0  0
    0.8717    2.2103    3.0440 C   0  0  0  0  0  0  0  0  0  0  0  0
    1.3018    1.0854    2.3011 C   0  0  0  0  0  0  0  0  0  0  0  0
    2.6801    0.7774    2.1772 C   0  0  0  0  0  0  0  0  0  0  0  0
    3.6558    1.5796    2.8050 C   0  0  0  0  0  0  0  0  0  0  0  0
    3.2161    2.6832    3.5462 C   0  0  0  0  0  0  0  0  0  0  0  0
    1.8626    2.9939    3.6516 C   0  0  0  0  0  0  0  0  0  0  0  0
    1.7543    4.1134    4.4432 C   0  0  0  0  0  0  0  0  0  0  0  0
    0.7560    4.7860    4.6734 O   0  0  0  0  0  0  0  0  0  0  0  0
    3.0313    4.5148    4.8497 N   0  0  0  0  0  0  0  0  0  0  0  0
    3.2618    5.3420    6.0573 C   0  0  0  0  0  0  0  0  0  0  0  0
    3.9185    6.6999    5.7196 C   0  0  0  0  0  0  0  0  0  0  0  0
    5.4565    6.5812    5.6284 C   0  0  0  0  0  0  0  0  0  0  0  0
    6.0491    5.8873    6.8339 C   0  0  0  0  0  0  0  0  0  0  0  0
    7.1584    6.1414    7.2796 O   0  0  0  0  0  0  0  0  0  0  0  0
    5.3028    4.9152    7.5050 N   0  0  0  0  0  0  0  0  0  0  0  0
    3.9871    4.5759    7.1581 C   0  0  0  0  0  0  0  0  0  0  0  0
    3.4381    3.7498    7.8720 O   0  0  0  0  0  0  0  0  0  0  0  0
    3.9328    3.5988    4.2798 C   0  0  0  0  0  0  0  0  0  0  0  0
    5.1276    3.5683    4.5515 O   0  0  0  0  0  0  0  0  0  0  0  0
   -4.5841   -2.3434   -3.4746 H   0  0  0  0  0  0  0  0  0  0  0  0
   -4.2004   -0.9491   -2.4555 H   0  0  0  0  0  0  0  0  0  0  0  0
   -2.4980   -3.2938   -4.7940 H   0  0  0  0  0  0  0  0  0  0  0  0
   -1.0201   -4.1654   -7.7086 H   0  0  0  0  0  0  0  0  0  0  0  0
   -3.1303   -5.4296   -8.1226 H   0  0  0  0  0  0  0  0  0  0  0  0
   -3.0227   -6.9361   -4.0834 H   0  0  0  0  0  0  0  0  0  0  0  0
    3.3642   -3.8963   -4.8605 H   0  0  0  0  0  0  0  0  0  0  0  0
    1.2403    0.2172   -4.7611 H   0  0  0  0  0  0  0  0  0  0  0  0
    0.7522    2.4267   -3.8112 H   0  0  0  0  0  0  0  0  0  0  0  0
   -1.4914    2.9449   -2.8651 H   0  0  0  0  0  0  0  0  0  0  0  0
   -3.2891    1.2080   -2.9206 H   0  0  0  0  0  0  0  0  0  0  0  0
   -1.4542   -1.6085   -1.8279 H   0  0  0  0  0  0  0  0  0  0  0  0
   -0.2381   -2.7059   -0.1855 H   0  0  0  0  0  0  0  0  0  0  0  0
   -1.1673   -4.1701   -0.5497 H   0  0  0  0  0  0  0  0  0  0  0  0
   -1.3873   -3.3608    1.8629 H   0  0  0  0  0  0  0  0  0  0  0  0
   -2.9223   -3.5707    0.9956 H   0  0  0  0  0  0  0  0  0  0  0  0
   -4.0529   -1.7655    2.3863 H   0  0  0  0  0  0  0  0  0  0  0  0
   -4.2777   -1.6943    0.6262 H   0  0  0  0  0  0  0  0  0  0  0  0
   -4.9568    0.4334    1.2960 H   0  0  0  0  0  0  0  0  0  0  0  0
   -3.2910    0.7354    0.7745 H   0  0  0  0  0  0  0  0  0  0  0  0
   -2.2469    1.0986    4.3523 H   0  0  0  0  0  0  0  0  0  0  0  0
   -1.7017   -0.0909    3.1616 H   0  0  0  0  0  0  0  0  0  0  0  0
   -1.3033    1.6278    1.4906 H   0  0  0  0  0  0  0  0  0  0  0  0
   -2.3544    2.7783    2.3298 H   0  0  0  0  0  0  0  0  0  0  0  0
   -0.6391    3.3499    3.8175 H   0  0  0  0  0  0  0  0  0  0  0  0
    0.5750    0.4340    1.8270 H   0  0  0  0  0  0  0  0  0  0  0  0
    2.9900   -0.0942    1.6060 H   0  0  0  0  0  0  0  0  0  0  0  0
    4.7148    1.3477    2.7265 H   0  0  0  0  0  0  0  0  0  0  0  0
    2.2708    5.5735    6.4722 H   0  0  0  0  0  0  0  0  0  0  0  0
    3.6633    7.4187    6.5103 H   0  0  0  0  0  0  0  0  0  0  0  0
    3.5057    7.0993    4.7837 H   0  0  0  0  0  0  0  0  0  0  0  0
    5.7434    6.0293    4.7267 H   0  0  0  0  0  0  0  0  0  0  0  0
    5.8997    7.5797    5.5325 H   0  0  0  0  0  0  0  0  0  0  0  0
    5.7378    4.4156    8.2655 H   0  0  0  0  0  0  0  0  0  0  0  0
  1  2  2  0  0  0  0
  2  3  1  0  0  0  0
  2 28  1  0  0  0  0
  3  4  1  0  0  0  0
  3 57  1  0  0  0  0
  3 58  1  0  0  0  0
  4  5  1  0  0  0  0
  4 27  1  0  0  0  0
  5  6  2  0  0  0  0
  5 59  1  0  0  0  0
  6  7  1  0  0  0  0
  6 22  1  0  0  0  0
  7  8  2  0  0  0  0
  7 20  1  0  0  0  0
  8  9  1  0  0  0  0
  8 17  1  0  0  0  0
  9 10  2  0  0  0  0
  9 15  1  0  0  0  0
 10 11  1  0  0  0  0
 10 60  1  0  0  0  0
 11 12  2  0  0  0  0
 11 61  1  0  0  0  0
 12 13  1  0  0  0  0
 12 14  1  0  0  0  0
 14 15  2  0  0  0  0
 14 62  1  0  0  0  0
 15 16  1  0  0  0  0
 17 18  2  0  0  0  0
 17 19  1  0  0  0  0
 19 20  1  0  0  0  0
 19 63  1  0  0  0  0
 20 21  2  0  0  0  0
 22 23  2  0  0  0  0
 22 27  1  0  0  0  0
 23 24  1  0  0  0  0
 23 64  1  0  0  0  0
 24 25  2  0  0  0  0
 24 65  1  0  0  0  0
 25 26  1  0  0  0  0
 25 66  1  0  0  0  0
 26 27  2  0  0  0  0
 26 67  1  0  0  0  0
 28 29  1  0  0  0  0
 28 68  1  0  0  0  0
 29 30  1  0  0  0  0
 29 69  1  0  0  0  0
 29 70  1  0  0  0  0
 30 31  1  0  0  0  0
 30 71  1  0  0  0  0
 30 72  1  0  0  0  0
 31 32  1  0  0  0  0
 32 33  1  0  0  0  0
 32 73  1  0  0  0  0
 32 74  1  0  0  0  0
 33 34  1  0  0  0  0
 33 75  1  0  0  0  0
 33 76  1  0  0  0  0
 34 35  1  0  0  0  0
 35 36  1  0  0  0  0
 35 77  1  0  0  0  0
 35 78  1  0  0  0  0
 36 37  1  0  0  0  0
 36 79  1  0  0  0  0
 36 80  1  0  0  0  0
 37 38  1  0  0  0  0
 37 81  1  0  0  0  0
 38 39  2  0  0  0  0
 38 43  1  0  0  0  0
 39 40  1  0  0  0  0
 39 82  1  0  0  0  0
 40 41  2  0  0  0  0
 40 83  1  0  0  0  0
 41 42  1  0  0  0  0
 41 84  1  0  0  0  0
 42 43  2  0  0  0  0
 42 55  1  0  0  0  0
 43 44  1  0  0  0  0
 44 45  2  0  0  0  0
 44 46  1  0  0  0  0
 46 47  1  0  0  0  0
 46 55  1  0  0  0  0
 47 48  1  0  0  0  0
 47 53  1  0  0  0  0
 47 85  1  0  0  0  0
 48 49  1  0  0  0  0
 48 86  1  0  0  0  0
 48 87  1  0  0  0  0
 49 50  1  0  0  0  0
 49 88  1  0  0  0  0
 49 89  1  0  0  0  0
 50 51  2  0  0  0  0
 50 52  1  0  0  0  0
 52 53  1  0  0  0  0
 52 90  1  0  0  0  0
 53 54  2  0  0  0  0
 55 56  2  0  0  0  0
M  END
$$$$
protac3895RUN2
  chem.cr 07102519423D
protac3895RUN2
 90 96  0  0  0  0  0  0  0  0999 V2000
   -4.5325   -3.1898    1.1034 O   0  0  0  0  0  0  0  0  0  0  0  0
   -4.1450   -2.0501    0.8864 C   0  0  0  0  0  0  0  0  0  0  0  0
   -4.4237   -0.8874    1.8238 C   0  0  0  0  0  0  0  0  0  0  0  0
   -4.2773    0.4626    1.2284 N   0  0  0  0  0  0  0  0  0  0  0  0
   -5.0230    0.7771    0.0828 C   0  0  0  0  0  0  0  0  0  0  0  0
   -4.2563    1.4182   -0.8303 C   0  0  0  0  0  0  0  0  0  0  0  0
   -4.5542    1.6627   -2.1411 C   0  0  0  0  0  0  0  0  0  0  0  0
   -5.7720    1.5526   -2.7230 C   0  0  0  0  0  0  0  0  0  0  0  0
   -6.9693    1.2842   -2.0906 C   0  0  0  0  0  0  0  0  0  0  0  0
   -7.6315    2.3335   -1.4241 C   0  0  0  0  0  0  0  0  0  0  0  0
   -8.8687    2.1100   -0.7976 C   0  0  0  0  0  0  0  0  0  0  0  0
   -9.4498    0.8324   -0.8353 C   0  0  0  0  0  0  0  0  0  0  0  0
  -11.0058    0.5542   -0.0625 Cl  0  0  0  0  0  0  0  0  0  0  0  0
   -8.7993   -0.2195   -1.5024 C   0  0  0  0  0  0  0  0  0  0  0  0
   -7.5633    0.0040   -2.1339 C   0  0  0  0  0  0  0  0  0  0  0  0
   -6.7776   -1.3315   -2.9705 Cl  0  0  0  0  0  0  0  0  0  0  0  0
   -5.7241    1.8057   -4.0312 C   0  0  0  0  0  0  0  0  0  0  0  0
   -6.5688    1.8212   -4.9142 O   0  0  0  0  0  0  0  0  0  0  0  0
   -4.4205    2.1307   -4.3569 N   0  0  0  0  0  0  0  0  0  0  0  0
   -3.7171    1.9870   -3.1619 C   0  0  0  0  0  0  0  0  0  0  0  0
   -2.5034    2.0855   -3.2701 O   0  0  0  0  0  0  0  0  0  0  0  0
   -3.0450    1.6818   -0.1709 C   0  0  0  0  0  0  0  0  0  0  0  0
   -1.9975    2.5846   -0.4538 C   0  0  0  0  0  0  0  0  0  0  0  0
   -0.9250    2.7063    0.4556 C   0  0  0  0  0  0  0  0  0  0  0  0
   -0.9269    1.9964    1.6742 C   0  0  0  0  0  0  0  0  0  0  0  0
   -2.0171    1.1753    2.0082 C   0  0  0  0  0  0  0  0  0  0  0  0
   -3.0552    1.0579    1.0768 C   0  0  0  0  0  0  0  0  0  0  0  0
   -3.3886   -1.7914   -0.2664 N   0  0  0  0  0  0  0  0  0  0  0  0
   -3.4546   -2.5980   -1.4904 C   0  0  0  0  0  0  0  0  0  0  0  0
   -2.0933   -2.7909   -2.1958 C   0  0  0  0  0  0  0  0  0  0  0  0
   -1.5724   -1.5334   -2.6933 O   0  0  0  0  0  0  0  0  0  0  0  0
   -0.8738   -0.6356   -1.7925 C   0  0  0  0  0  0  0  0  0  0  0  0
    0.4377   -1.2740   -1.2819 C   0  0  0  0  0  0  0  0  0  0  0  0
    0.1089   -2.1318   -0.1758 O   0  0  0  0  0  0  0  0  0  0  0  0
    1.1531   -2.9748    0.3282 C   0  0  0  0  0  0  0  0  0  0  0  0
    1.9593   -2.2041    1.3909 C   0  0  0  0  0  0  0  0  0  0  0  0
    2.9095   -1.2516    0.7936 N   0  0  0  0  0  0  0  0  0  0  0  0
    3.4267   -0.1642    1.4880 C   0  0  0  0  0  0  0  0  0  0  0  0
    2.6551    0.6107    2.3859 C   0  0  0  0  0  0  0  0  0  0  0  0
    3.2363    1.6791    3.1115 C   0  0  0  0  0  0  0  0  0  0  0  0
    4.6040    1.9861    2.9639 C   0  0  0  0  0  0  0  0  0  0  0  0
    5.3551    1.2220    2.0613 C   0  0  0  0  0  0  0  0  0  0  0  0
    4.7720    0.1870    1.3317 C   0  0  0  0  0  0  0  0  0  0  0  0
    5.7520   -0.3801    0.5582 C   0  0  0  0  0  0  0  0  0  0  0  0
    5.6556   -1.3014   -0.2449 O   0  0  0  0  0  0  0  0  0  0  0  0
    6.9615    0.2606    0.8281 N   0  0  0  0  0  0  0  0  0  0  0  0
    8.2516   -0.1006    0.1989 C   0  0  0  0  0  0  0  0  0  0  0  0
    8.7577   -1.4562    0.7410 C   0  0  0  0  0  0  0  0  0  0  0  0
    9.3250   -1.2722    2.1641 C   0  0  0  0  0  0  0  0  0  0  0  0
   10.3896   -0.1970    2.2064 C   0  0  0  0  0  0  0  0  0  0  0  0
   11.3849   -0.2643    2.9117 O   0  0  0  0  0  0  0  0  0  0  0  0
   10.3432    0.8462    1.2737 N   0  0  0  0  0  0  0  0  0  0  0  0
    9.3238    0.9786    0.3163 C   0  0  0  0  0  0  0  0  0  0  0  0
    9.4404    1.9010   -0.4780 O   0  0  0  0  0  0  0  0  0  0  0  0
    6.6986    1.2831    1.7586 C   0  0  0  0  0  0  0  0  0  0  0  0
    7.5746    1.7332    2.4879 O   0  0  0  0  0  0  0  0  0  0  0  0
   -5.4468   -0.9893    2.2042 H   0  0  0  0  0  0  0  0  0  0  0  0
   -3.7507   -0.9716    2.6842 H   0  0  0  0  0  0  0  0  0  0  0  0
   -6.0134    0.3417   -0.0128 H   0  0  0  0  0  0  0  0  0  0  0  0
   -7.1908    3.3273   -1.4100 H   0  0  0  0  0  0  0  0  0  0  0  0
   -9.3818    2.9294   -0.2991 H   0  0  0  0  0  0  0  0  0  0  0  0
   -9.2623   -1.2012   -1.5430 H   0  0  0  0  0  0  0  0  0  0  0  0
   -4.0142    1.9987   -5.2701 H   0  0  0  0  0  0  0  0  0  0  0  0
   -2.0151    3.2370   -1.3173 H   0  0  0  0  0  0  0  0  0  0  0  0
   -0.1085    3.3886    0.2317 H   0  0  0  0  0  0  0  0  0  0  0  0
   -0.1144    2.1365    2.3812 H   0  0  0  0  0  0  0  0  0  0  0  0
   -2.0731    0.6857    2.9742 H   0  0  0  0  0  0  0  0  0  0  0  0
   -3.0050   -0.8575   -0.3512 H   0  0  0  0  0  0  0  0  0  0  0  0
   -4.1433   -2.1175   -2.1946 H   0  0  0  0  0  0  0  0  0  0  0  0
   -3.8640   -3.5877   -1.2467 H   0  0  0  0  0  0  0  0  0  0  0  0
   -2.2565   -3.4616   -3.0477 H   0  0  0  0  0  0  0  0  0  0  0  0
   -1.3905   -3.3061   -1.5334 H   0  0  0  0  0  0  0  0  0  0  0  0
   -1.4843   -0.3280   -0.9402 H   0  0  0  0  0  0  0  0  0  0  0  0
   -0.6183    0.2824   -2.3355 H   0  0  0  0  0  0  0  0  0  0  0  0
    1.1167   -0.4743   -0.9608 H   0  0  0  0  0  0  0  0  0  0  0  0
    0.9156   -1.8304   -2.0984 H   0  0  0  0  0  0  0  0  0  0  0  0
    0.6914   -3.8413    0.8193 H   0  0  0  0  0  0  0  0  0  0  0  0
    1.7998   -3.3547   -0.4755 H   0  0  0  0  0  0  0  0  0  0  0  0
    1.2507   -1.7011    2.0587 H   0  0  0  0  0  0  0  0  0  0  0  0
    2.5199   -2.9277    1.9963 H   0  0  0  0  0  0  0  0  0  0  0  0
    3.5186   -1.6111    0.0645 H   0  0  0  0  0  0  0  0  0  0  0  0
    1.6001    0.3982    2.5165 H   0  0  0  0  0  0  0  0  0  0  0  0
    2.6255    2.2594    3.7960 H   0  0  0  0  0  0  0  0  0  0  0  0
    5.0702    2.7888    3.5296 H   0  0  0  0  0  0  0  0  0  0  0  0
    8.0501   -0.2189   -0.8763 H   0  0  0  0  0  0  0  0  0  0  0  0
    9.5478   -1.8373    0.0817 H   0  0  0  0  0  0  0  0  0  0  0  0
    7.9516   -2.2004    0.7348 H   0  0  0  0  0  0  0  0  0  0  0  0
    8.5226   -1.0008    2.8624 H   0  0  0  0  0  0  0  0  0  0  0  0
    9.7504   -2.2177    2.5215 H   0  0  0  0  0  0  0  0  0  0  0  0
   11.0637    1.5507    1.3098 H   0  0  0  0  0  0  0  0  0  0  0  0
  1  2  2  0  0  0  0
  2  3  1  0  0  0  0
  2 28  1  0  0  0  0
  3  4  1  0  0  0  0
  3 57  1  0  0  0  0
  3 58  1  0  0  0  0
  4  5  1  0  0  0  0
  4 27  1  0  0  0  0
  5  6  2  0  0  0  0
  5 59  1  0  0  0  0
  6  7  1  0  0  0  0
  6 22  1  0  0  0  0
  7  8  2  0  0  0  0
  7 20  1  0  0  0  0
  8  9  1  0  0  0  0
  8 17  1  0  0  0  0
  9 10  2  0  0  0  0
  9 15  1  0  0  0  0
 10 11  1  0  0  0  0
 10 60  1  0  0  0  0
 11 12  2  0  0  0  0
 11 61  1  0  0  0  0
 12 13  1  0  0  0  0
 12 14  1  0  0  0  0
 14 15  2  0  0  0  0
 14 62  1  0  0  0  0
 15 16  1  0  0  0  0
 17 18  2  0  0  0  0
 17 19  1  0  0  0  0
 19 20  1  0  0  0  0
 19 63  1  0  0  0  0
 20 21  2  0  0  0  0
 22 23  2  0  0  0  0
 22 27  1  0  0  0  0
 23 24  1  0  0  0  0
 23 64  1  0  0  0  0
 24 25  2  0  0  0  0
 24 65  1  0  0  0  0
 25 26  1  0  0  0  0
 25 66  1  0  0  0  0
 26 27  2  0  0  0  0
 26 67  1  0  0  0  0
 28 29  1  0  0  0  0
 28 68  1  0  0  0  0
 29 30  1  0  0  0  0
 29 69  1  0  0  0  0
 29 70  1  0  0  0  0
 30 31  1  0  0  0  0
 30 71  1  0  0  0  0
 30 72  1  0  0  0  0
 31 32  1  0  0  0  0
 32 33  1  0  0  0  0
 32 73  1  0  0  0  0
 32 74  1  0  0  0  0
 33 34  1  0  0  0  0
 33 75  1  0  0  0  0
 33 76  1  0  0  0  0
 34 35  1  0  0  0  0
 35 36  1  0  0  0  0
 35 77  1  0  0  0  0
 35 78  1  0  0  0  0
 36 37  1  0  0  0  0
 36 79  1  0  0  0  0
 36 80  1  0  0  0  0
 37 38  1  0  0  0  0
 37 81  1  0  0  0  0
 38 39  2  0  0  0  0
 38 43  1  0  0  0  0
 39 40  1  0  0  0  0
 39 82  1  0  0  0  0
 40 41  2  0  0  0  0
 40 83  1  0  0  0  0
 41 42  1  0  0  0  0
 41 84  1  0  0  0  0
 42 43  2  0  0  0  0
 42 55  1  0  0  0  0
 43 44  1  0  0  0  0
 44 45  2  0  0  0  0
 44 46  1  0  0  0  0
 46 47  1  0  0  0  0
 46 55  1  0  0  0  0
 47 48  1  0  0  0  0
 47 53  1  0  0  0  0
 47 85  1  0  0  0  0
 48 49  1  0  0  0  0
 48 86  1  0  0  0  0
 48 87  1  0  0  0  0
 49 50  1  0  0  0  0
 49 88  1  0  0  0  0
 49 89  1  0  0  0  0
 50 51  2  0  0  0  0
 50 52  1  0  0  0  0
 52 53  1  0  0  0  0
 52 90  1  0  0  0  0
 53 54  2  0  0  0  0
 55 56  2  0  0  0  0
M  END
$$$$
protac3895RUN2
  chem.cr 07102519423D
protac3895RUN2
 90 96  0  0  0  0  0  0  0  0999 V2000
   -2.2137    2.4087   -0.7607 O   0  0  0  0  0  0  0  0  0  0  0  0
   -2.1317    1.1961   -0.8879 C   0  0  0  0  0  0  0  0  0  0  0  0
   -3.3415    0.3300   -1.1848 C   0  0  0  0  0  0  0  0  0  0  0  0
   -3.6342   -0.7320   -0.1900 N   0  0  0  0  0  0  0  0  0  0  0  0
   -3.1911   -0.5650    1.1240 C   0  0  0  0  0  0  0  0  0  0  0  0
   -2.6971   -1.7104    1.6562 C   0  0  0  0  0  0  0  0  0  0  0  0
   -2.1742   -1.8772    2.9247 C   0  0  0  0  0  0  0  0  0  0  0  0
   -2.0852   -0.9199    3.8895 C   0  0  0  0  0  0  0  0  0  0  0  0
   -2.5763    0.3697    3.8355 C   0  0  0  0  0  0  0  0  0  0  0  0
   -3.9657    0.5695    3.9722 C   0  0  0  0  0  0  0  0  0  0  0  0
   -4.5054    1.8654    3.9129 C   0  0  0  0  0  0  0  0  0  0  0  0
   -3.6585    2.9678    3.7208 C   0  0  0  0  0  0  0  0  0  0  0  0
   -4.3324    4.5907    3.6427 Cl  0  0  0  0  0  0  0  0  0  0  0  0
   -2.2714    2.7797    3.6078 C   0  0  0  0  0  0  0  0  0  0  0  0
   -1.7241    1.4868    3.6834 C   0  0  0  0  0  0  0  0  0  0  0  0
    0.0294    1.2989    3.5928 Cl  0  0  0  0  0  0  0  0  0  0  0  0
   -1.5362   -1.3780    5.0151 C   0  0  0  0  0  0  0  0  0  0  0  0
   -1.3330   -0.8820    6.1159 O   0  0  0  0  0  0  0  0  0  0  0  0
   -1.2065   -2.6998    4.8223 N   0  0  0  0  0  0  0  0  0  0  0  0
   -1.6770   -2.9859    3.5427 C   0  0  0  0  0  0  0  0  0  0  0  0
   -1.6004   -4.1713    3.2685 O   0  0  0  0  0  0  0  0  0  0  0  0
   -2.8085   -2.6510    0.6018 C   0  0  0  0  0  0  0  0  0  0  0  0
   -2.2783   -3.9450    0.3824 C   0  0  0  0  0  0  0  0  0  0  0  0
   -2.5536   -4.6300   -0.8200 C   0  0  0  0  0  0  0  0  0  0  0  0
   -3.3124   -4.0282   -1.8411 C   0  0  0  0  0  0  0  0  0  0  0  0
   -3.7418   -2.7024   -1.6925 C   0  0  0  0  0  0  0  0  0  0  0  0
   -3.4571   -2.0497   -0.4858 C   0  0  0  0  0  0  0  0  0  0  0  0
   -0.8727    0.7256   -1.2781 N   0  0  0  0  0  0  0  0  0  0  0  0
   -0.2931   -0.5410   -0.8077 C   0  0  0  0  0  0  0  0  0  0  0  0
    0.1559   -0.3994    0.6529 C   0  0  0  0  0  0  0  0  0  0  0  0
    0.5192   -1.6963    1.1614 O   0  0  0  0  0  0  0  0  0  0  0  0
    1.8970   -2.0837    1.0446 C   0  0  0  0  0  0  0  0  0  0  0  0
    2.7094   -1.4595    2.2046 C   0  0  0  0  0  0  0  0  0  0  0  0
    2.9196   -0.0806    1.8988 O   0  0  0  0  0  0  0  0  0  0  0  0
    3.9229    0.5997    2.6519 C   0  0  0  0  0  0  0  0  0  0  0  0
    4.0277    2.0453    2.0997 C   0  0  0  0  0  0  0  0  0  0  0  0
    3.7164    2.1460    0.6580 N   0  0  0  0  0  0  0  0  0  0  0  0
    4.3397    1.4235   -0.3570 C   0  0  0  0  0  0  0  0  0  0  0  0
    5.6047    0.8132   -0.1985 C   0  0  0  0  0  0  0  0  0  0  0  0
    6.1952    0.0709   -1.2506 C   0  0  0  0  0  0  0  0  0  0  0  0
    5.5381   -0.0690   -2.4885 C   0  0  0  0  0  0  0  0  0  0  0  0
    4.2907    0.5459   -2.6369 C   0  0  0  0  0  0  0  0  0  0  0  0
    3.7055    1.2705   -1.5989 C   0  0  0  0  0  0  0  0  0  0  0  0
    2.4925    1.7377   -2.0470 C   0  0  0  0  0  0  0  0  0  0  0  0
    1.6096    2.2689   -1.3842 O   0  0  0  0  0  0  0  0  0  0  0  0
    2.3202    1.3295   -3.3824 N   0  0  0  0  0  0  0  0  0  0  0  0
    1.1249    1.4288   -4.2563 C   0  0  0  0  0  0  0  0  0  0  0  0
    0.2865    2.7142   -4.0522 C   0  0  0  0  0  0  0  0  0  0  0  0
   -0.9033    2.7204   -5.0338 C   0  0  0  0  0  0  0  0  0  0  0  0
   -1.7168    1.4537   -4.8968 C   0  0  0  0  0  0  0  0  0  0  0  0
   -2.9283    1.4011   -5.0341 O   0  0  0  0  0  0  0  0  0  0  0  0
   -1.0329    0.2406   -4.7547 N   0  0  0  0  0  0  0  0  0  0  0  0
    0.2573    0.1734   -4.2092 C   0  0  0  0  0  0  0  0  0  0  0  0
    0.6947   -0.9552   -4.0338 O   0  0  0  0  0  0  0  0  0  0  0  0
    3.4478    0.5696   -3.7211 C   0  0  0  0  0  0  0  0  0  0  0  0
    3.7178    0.2912   -4.8838 O   0  0  0  0  0  0  0  0  0  0  0  0
   -4.2179    0.9823   -1.2587 H   0  0  0  0  0  0  0  0  0  0  0  0
   -3.1957   -0.1209   -2.1706 H   0  0  0  0  0  0  0  0  0  0  0  0
   -3.2595    0.4370    1.5313 H   0  0  0  0  0  0  0  0  0  0  0  0
   -4.6219   -0.2880    4.1041 H   0  0  0  0  0  0  0  0  0  0  0  0
   -5.5775    2.0153    4.0083 H   0  0  0  0  0  0  0  0  0  0  0  0
   -1.6183    3.6362    3.4677 H   0  0  0  0  0  0  0  0  0  0  0  0
   -1.1754   -3.3820    5.5626 H   0  0  0  0  0  0  0  0  0  0  0  0
   -1.6103   -4.4369    1.0638 H   0  0  0  0  0  0  0  0  0  0  0  0
   -2.1531   -5.6302   -0.9695 H   0  0  0  0  0  0  0  0  0  0  0  0
   -3.5167   -4.5726   -2.7582 H   0  0  0  0  0  0  0  0  0  0  0  0
   -4.2614   -2.1926   -2.4978 H   0  0  0  0  0  0  0  0  0  0  0  0
   -0.2005    1.4548   -1.4923 H   0  0  0  0  0  0  0  0  0  0  0  0
    0.5765   -0.7949   -1.4262 H   0  0  0  0  0  0  0  0  0  0  0  0
   -1.0148   -1.3588   -0.9091 H   0  0  0  0  0  0  0  0  0  0  0  0
   -0.6673    0.0068    1.2464 H   0  0  0  0  0  0  0  0  0  0  0  0
    0.9730    0.3262    0.7082 H   0  0  0  0  0  0  0  0  0  0  0  0
    2.3196   -1.7704    0.0812 H   0  0  0  0  0  0  0  0  0  0  0  0
    1.9765   -3.1761    1.1142 H   0  0  0  0  0  0  0  0  0  0  0  0
    3.6707   -1.9831    2.2846 H   0  0  0  0  0  0  0  0  0  0  0  0
    2.1627   -1.5753    3.1488 H   0  0  0  0  0  0  0  0  0  0  0  0
    3.6668    0.6226    3.7179 H   0  0  0  0  0  0  0  0  0  0  0  0
    4.8879    0.0891    2.5407 H   0  0  0  0  0  0  0  0  0  0  0  0
    3.3119    2.6683    2.6508 H   0  0  0  0  0  0  0  0  0  0  0  0
    5.0304    2.4456    2.2982 H   0  0  0  0  0  0  0  0  0  0  0  0
    2.7924    2.4885    0.4164 H   0  0  0  0  0  0  0  0  0  0  0  0
    6.1371    0.9089    0.7415 H   0  0  0  0  0  0  0  0  0  0  0  0
    7.1644   -0.3964   -1.1059 H   0  0  0  0  0  0  0  0  0  0  0  0
    5.9763   -0.6344   -3.3056 H   0  0  0  0  0  0  0  0  0  0  0  0
    1.5091    1.4753   -5.2846 H   0  0  0  0  0  0  0  0  0  0  0  0
    0.9145    3.6037   -4.1858 H   0  0  0  0  0  0  0  0  0  0  0  0
   -0.1157    2.7544   -3.0337 H   0  0  0  0  0  0  0  0  0  0  0  0
   -1.5428    3.5914   -4.8456 H   0  0  0  0  0  0  0  0  0  0  0  0
   -0.5489    2.8105   -6.0681 H   0  0  0  0  0  0  0  0  0  0  0  0
   -1.5365   -0.6232   -4.8905 H   0  0  0  0  0  0  0  0  0  0  0  0
  1  2  2  0  0  0  0
  2  3  1  0  0  0  0
  2 28  1  0  0  0  0
  3  4  1  0  0  0  0
  3 57  1  0  0  0  0
  3 58  1  0  0  0  0
  4  5  1  0  0  0  0
  4 27  1  0  0  0  0
  5  6  2  0  0  0  0
  5 59  1  0  0  0  0
  6  7  1  0  0  0  0
  6 22  1  0  0  0  0
  7  8  2  0  0  0  0
  7 20  1  0  0  0  0
  8  9  1  0  0  0  0
  8 17  1  0  0  0  0
  9 10  2  0  0  0  0
  9 15  1  0  0  0  0
 10 11  1  0  0  0  0
 10 60  1  0  0  0  0
 11 12  2  0  0  0  0
 11 61  1  0  0  0  0
 12 13  1  0  0  0  0
 12 14  1  0  0  0  0
 14 15  2  0  0  0  0
 14 62  1  0  0  0  0
 15 16  1  0  0  0  0
 17 18  2  0  0  0  0
 17 19  1  0  0  0  0
 19 20  1  0  0  0  0
 19 63  1  0  0  0  0
 20 21  2  0  0  0  0
 22 23  2  0  0  0  0
 22 27  1  0  0  0  0
 23 24  1  0  0  0  0
 23 64  1  0  0  0  0
 24 25  2  0  0  0  0
 24 65  1  0  0  0  0
 25 26  1  0  0  0  0
 25 66  1  0  0  0  0
 26 27  2  0  0  0  0
 26 67  1  0  0  0  0
 28 29  1  0  0  0  0
 28 68  1  0  0  0  0
 29 30  1  0  0  0  0
 29 69  1  0  0  0  0
 29 70  1  0  0  0  0
 30 31  1  0  0  0  0
 30 71  1  0  0  0  0
 30 72  1  0  0  0  0
 31 32  1  0  0  0  0
 32 33  1  0  0  0  0
 32 73  1  0  0  0  0
 32 74  1  0  0  0  0
 33 34  1  0  0  0  0
 33 75  1  0  0  0  0
 33 76  1  0  0  0  0
 34 35  1  0  0  0  0
 35 36  1  0  0  0  0
 35 77  1  0  0  0  0
 35 78  1  0  0  0  0
 36 37  1  0  0  0  0
 36 79  1  0  0  0  0
 36 80  1  0  0  0  0
 37 38  1  0  0  0  0
 37 81  1  0  0  0  0
 38 39  2  0  0  0  0
 38 43  1  0  0  0  0
 39 40  1  0  0  0  0
 39 82  1  0  0  0  0
 40 41  2  0  0  0  0
 40 83  1  0  0  0  0
 41 42  1  0  0  0  0
 41 84  1  0  0  0  0
 42 43  2  0  0  0  0
 42 55  1  0  0  0  0
 43 44  1  0  0  0  0
 44 45  2  0  0  0  0
 44 46  1  0  0  0  0
 46 47  1  0  0  0  0
 46 55  1  0  0  0  0
 47 48  1  0  0  0  0
 47 53  1  0  0  0  0
 47 85  1  0  0  0  0
 48 49  1  0  0  0  0
 48 86  1  0  0  0  0
 48 87  1  0  0  0  0
 49 50  1  0  0  0  0
 49 88  1  0  0  0  0
 49 89  1  0  0  0  0
 50 51  2  0  0  0  0
 50 52  1  0  0  0  0
 52 53  1  0  0  0  0
 52 90  1  0  0  0  0
 53 54  2  0  0  0  0
 55 56  2  0  0  0  0
M  END
$$$$
protac3895RUN2
  chem.cr 07102519423D
protac3895RUN2
 90 96  0  0  0  0  0  0  0  0999 V2000
   -3.5852    3.9724    2.8690 O   0  0  0  0  0  0  0  0  0  0  0  0
   -2.5832    3.6863    2.2285 C   0  0  0  0  0  0  0  0  0  0  0  0
   -1.6407    4.7280    1.6653 C   0  0  0  0  0  0  0  0  0  0  0  0
   -0.3650    4.1884    1.1507 N   0  0  0  0  0  0  0  0  0  0  0  0
    0.7966    4.1953    1.9292 C   0  0  0  0  0  0  0  0  0  0  0  0
    1.8988    4.2814    1.1499 C   0  0  0  0  0  0  0  0  0  0  0  0
    3.1908    4.4810    1.5635 C   0  0  0  0  0  0  0  0  0  0  0  0
    3.6502    4.3580    2.8333 C   0  0  0  0  0  0  0  0  0  0  0  0
    2.9338    3.9091    3.9259 C   0  0  0  0  0  0  0  0  0  0  0  0
    2.6552    2.5337    4.0422 C   0  0  0  0  0  0  0  0  0  0  0  0
    1.9291    2.0460    5.1420 C   0  0  0  0  0  0  0  0  0  0  0  0
    1.4710    2.9341    6.1277 C   0  0  0  0  0  0  0  0  0  0  0  0
    0.5627    2.3245    7.5050 Cl  0  0  0  0  0  0  0  0  0  0  0  0
    1.7512    4.3063    6.0238 C   0  0  0  0  0  0  0  0  0  0  0  0
    2.4840    4.7962    4.9288 C   0  0  0  0  0  0  0  0  0  0  0  0
    2.8109    6.5250    4.8207 Cl  0  0  0  0  0  0  0  0  0  0  0  0
    4.9503    4.6376    2.9255 C   0  0  0  0  0  0  0  0  0  0  0  0
    5.7570    4.6052    3.8450 O   0  0  0  0  0  0  0  0  0  0  0  0
    5.3896    5.0086    1.6714 N   0  0  0  0  0  0  0  0  0  0  0  0
    4.2757    4.8765    0.8455 C   0  0  0  0  0  0  0  0  0  0  0  0
    4.4605    5.2226   -0.3129 O   0  0  0  0  0  0  0  0  0  0  0  0
    1.4180    4.2109   -0.1723 C   0  0  0  0  0  0  0  0  0  0  0  0
    2.0669    3.9349   -1.3964 C   0  0  0  0  0  0  0  0  0  0  0  0
    1.3033    3.8228   -2.5794 C   0  0  0  0  0  0  0  0  0  0  0  0
   -0.1044    3.9082   -2.5431 C   0  0  0  0  0  0  0  0  0  0  0  0
   -0.7667    4.0621   -1.3118 C   0  0  0  0  0  0  0  0  0  0  0  0
    0.0193    4.2009   -0.1595 C   0  0  0  0  0  0  0  0  0  0  0  0
   -2.3165    2.3422    1.9249 N   0  0  0  0  0  0  0  0  0  0  0  0
   -2.9561    1.2120    2.6160 C   0  0  0  0  0  0  0  0  0  0  0  0
   -3.1499    0.0123    1.6793 C   0  0  0  0  0  0  0  0  0  0  0  0
   -3.7471   -1.0329    2.4651 O   0  0  0  0  0  0  0  0  0  0  0  0
   -4.2463   -2.1707    1.7407 C   0  0  0  0  0  0  0  0  0  0  0  0
   -3.0687   -2.9570    1.1101 C   0  0  0  0  0  0  0  0  0  0  0  0
   -3.5756   -4.0448    0.3172 O   0  0  0  0  0  0  0  0  0  0  0  0
   -4.3616   -3.6777   -0.8278 C   0  0  0  0  0  0  0  0  0  0  0  0
   -4.2657   -4.8313   -1.8391 C   0  0  0  0  0  0  0  0  0  0  0  0
   -2.9014   -4.8829   -2.3907 N   0  0  0  0  0  0  0  0  0  0  0  0
   -2.4538   -4.0812   -3.4366 C   0  0  0  0  0  0  0  0  0  0  0  0
   -3.2919   -3.6580   -4.4975 C   0  0  0  0  0  0  0  0  0  0  0  0
   -2.7950   -2.8392   -5.5411 C   0  0  0  0  0  0  0  0  0  0  0  0
   -1.4492   -2.4219   -5.5471 C   0  0  0  0  0  0  0  0  0  0  0  0
   -0.6301   -2.8475   -4.4952 C   0  0  0  0  0  0  0  0  0  0  0  0
   -1.1164   -3.6595   -3.4686 C   0  0  0  0  0  0  0  0  0  0  0  0
   -0.0796   -3.9196   -2.5975 C   0  0  0  0  0  0  0  0  0  0  0  0
   -0.0173   -4.8326   -1.7837 O   0  0  0  0  0  0  0  0  0  0  0  0
    1.0720   -3.2899   -3.0987 N   0  0  0  0  0  0  0  0  0  0  0  0
    2.4112   -3.2055   -2.4719 C   0  0  0  0  0  0  0  0  0  0  0  0
    3.3842   -4.2178   -3.1229 C   0  0  0  0  0  0  0  0  0  0  0  0
    3.1404   -5.6303   -2.5512 C   0  0  0  0  0  0  0  0  0  0  0  0
    3.2372   -5.6377   -1.0422 C   0  0  0  0  0  0  0  0  0  0  0  0
    3.7322   -6.5544   -0.4034 O   0  0  0  0  0  0  0  0  0  0  0  0
    2.8678   -4.4898   -0.3310 N   0  0  0  0  0  0  0  0  0  0  0  0
    2.3797   -3.3283   -0.9512 C   0  0  0  0  0  0  0  0  0  0  0  0
    2.1349   -2.3835   -0.2119 O   0  0  0  0  0  0  0  0  0  0  0  0
    0.7021   -2.6082   -4.2613 C   0  0  0  0  0  0  0  0  0  0  0  0
    1.5147   -2.0372   -4.9806 O   0  0  0  0  0  0  0  0  0  0  0  0
   -2.1524    5.2720    0.8624 H   0  0  0  0  0  0  0  0  0  0  0  0
   -1.4229    5.4584    2.4543 H   0  0  0  0  0  0  0  0  0  0  0  0
    0.6860    4.2564    3.0071 H   0  0  0  0  0  0  0  0  0  0  0  0
    3.0082    1.8472    3.2762 H   0  0  0  0  0  0  0  0  0  0  0  0
    1.7254    0.9828    5.2328 H   0  0  0  0  0  0  0  0  0  0  0  0
    1.4087    4.9900    6.7949 H   0  0  0  0  0  0  0  0  0  0  0  0
    6.3495    5.0273    1.3643 H   0  0  0  0  0  0  0  0  0  0  0  0
    3.1279    3.7459   -1.4584 H   0  0  0  0  0  0  0  0  0  0  0  0
    1.8053    3.6341   -3.5250 H   0  0  0  0  0  0  0  0  0  0  0  0
   -0.6761    3.7975   -3.4599 H   0  0  0  0  0  0  0  0  0  0  0  0
   -1.8513    4.0403   -1.2588 H   0  0  0  0  0  0  0  0  0  0  0  0
   -1.5312    2.1578    1.3112 H   0  0  0  0  0  0  0  0  0  0  0  0
   -3.9352    1.5177    3.0102 H   0  0  0  0  0  0  0  0  0  0  0  0
   -2.3326    0.9128    3.4685 H   0  0  0  0  0  0  0  0  0  0  0  0
   -2.1767   -0.2980    1.2774 H   0  0  0  0  0  0  0  0  0  0  0  0
   -3.8031    0.3012    0.8450 H   0  0  0  0  0  0  0  0  0  0  0  0
   -4.9548   -1.8400    0.9713 H   0  0  0  0  0  0  0  0  0  0  0  0
   -4.7858   -2.8363    2.4259 H   0  0  0  0  0  0  0  0  0  0  0  0
   -2.4332   -3.3470    1.9143 H   0  0  0  0  0  0  0  0  0  0  0  0
   -2.4495   -2.3028    0.4857 H   0  0  0  0  0  0  0  0  0  0  0  0
   -5.4089   -3.5183   -0.5398 H   0  0  0  0  0  0  0  0  0  0  0  0
   -3.9832   -2.7561   -1.2913 H   0  0  0  0  0  0  0  0  0  0  0  0
   -4.4966   -5.7767   -1.3300 H   0  0  0  0  0  0  0  0  0  0  0  0
   -5.0119   -4.6937   -2.6300 H   0  0  0  0  0  0  0  0  0  0  0  0
   -2.1703   -5.1804   -1.7480 H   0  0  0  0  0  0  0  0  0  0  0  0
   -4.3280   -3.9710   -4.5349 H   0  0  0  0  0  0  0  0  0  0  0  0
   -3.4549   -2.5345   -6.3491 H   0  0  0  0  0  0  0  0  0  0  0  0
   -1.0510   -1.7985   -6.3441 H   0  0  0  0  0  0  0  0  0  0  0  0
    2.7906   -2.1956   -2.6859 H   0  0  0  0  0  0  0  0  0  0  0  0
    4.4181   -3.9168   -2.9074 H   0  0  0  0  0  0  0  0  0  0  0  0
    3.2718   -4.2150   -4.2154 H   0  0  0  0  0  0  0  0  0  0  0  0
    2.1465   -5.9915   -2.8469 H   0  0  0  0  0  0  0  0  0  0  0  0
    3.8669   -6.3366   -2.9695 H   0  0  0  0  0  0  0  0  0  0  0  0
    2.9179   -4.5122    0.6752 H   0  0  0  0  0  0  0  0  0  0  0  0
  1  2  2  0  0  0  0
  2  3  1  0  0  0  0
  2 28  1  0  0  0  0
  3  4  1  0  0  0  0
  3 57  1  0  0  0  0
  3 58  1  0  0  0  0
  4  5  1  0  0  0  0
  4 27  1  0  0  0  0
  5  6  2  0  0  0  0
  5 59  1  0  0  0  0
  6  7  1  0  0  0  0
  6 22  1  0  0  0  0
  7  8  2  0  0  0  0
  7 20  1  0  0  0  0
  8  9  1  0  0  0  0
  8 17  1  0  0  0  0
  9 10  2  0  0  0  0
  9 15  1  0  0  0  0
 10 11  1  0  0  0  0
 10 60  1  0  0  0  0
 11 12  2  0  0  0  0
 11 61  1  0  0  0  0
 12 13  1  0  0  0  0
 12 14  1  0  0  0  0
 14 15  2  0  0  0  0
 14 62  1  0  0  0  0
 15 16  1  0  0  0  0
 17 18  2  0  0  0  0
 17 19  1  0  0  0  0
 19 20  1  0  0  0  0
 19 63  1  0  0  0  0
 20 21  2  0  0  0  0
 22 23  2  0  0  0  0
 22 27  1  0  0  0  0
 23 24  1  0  0  0  0
 23 64  1  0  0  0  0
 24 25  2  0  0  0  0
 24 65  1  0  0  0  0
 25 26  1  0  0  0  0
 25 66  1  0  0  0  0
 26 27  2  0  0  0  0
 26 67  1  0  0  0  0
 28 29  1  0  0  0  0
 28 68  1  0  0  0  0
 29 30  1  0  0  0  0
 29 69  1  0  0  0  0
 29 70  1  0  0  0  0
 30 31  1  0  0  0  0
 30 71  1  0  0  0  0
 30 72  1  0  0  0  0
 31 32  1  0  0  0  0
 32 33  1  0  0  0  0
 32 73  1  0  0  0  0
 32 74  1  0  0  0  0
 33 34  1  0  0  0  0
 33 75  1  0  0  0  0
 33 76  1  0  0  0  0
 34 35  1  0  0  0  0
 35 36  1  0  0  0  0
 35 77  1  0  0  0  0
 35 78  1  0  0  0  0
 36 37  1  0  0  0  0
 36 79  1  0  0  0  0
 36 80  1  0  0  0  0
 37 38  1  0  0  0  0
 37 81  1  0  0  0  0
 38 39  2  0  0  0  0
 38 43  1  0  0  0  0
 39 40  1  0  0  0  0
 39 82  1  0  0  0  0
 40 41  2  0  0  0  0
 40 83  1  0  0  0  0
 41 42  1  0  0  0  0
 41 84  1  0  0  0  0
 42 43  2  0  0  0  0
 42 55  1  0  0  0  0
 43 44  1  0  0  0  0
 44 45  2  0  0  0  0
 44 46  1  0  0  0  0
 46 47  1  0  0  0  0
 46 55  1  0  0  0  0
 47 48  1  0  0  0  0
 47 53  1  0  0  0  0
 47 85  1  0  0  0  0
 48 49  1  0  0  0  0
 48 86  1  0  0  0  0
 48 87  1  0  0  0  0
 49 50  1  0  0  0  0
 49 88  1  0  0  0  0
 49 89  1  0  0  0  0
 50 51  2  0  0  0  0
 50 52  1  0  0  0  0
 52 53  1  0  0  0  0
 52 90  1  0  0  0  0
 53 54  2  0  0  0  0
 55 56  2  0  0  0  0
M  END
$$$$
protac3895RUN2
  chem.cr 07102519423D
protac3895RUN2
 90 96  0  0  0  0  0  0  0  0999 V2000
    2.4098    1.9668    2.3139 O   0  0  0  0  0  0  0  0  0  0  0  0
    1.5689    1.8361    1.4333 C   0  0  0  0  0  0  0  0  0  0  0  0
    0.2051    2.4787    1.4877 C   0  0  0  0  0  0  0  0  0  0  0  0
    0.1408    3.7503    0.7450 N   0  0  0  0  0  0  0  0  0  0  0  0
    1.0266    4.7942    1.0355 C   0  0  0  0  0  0  0  0  0  0  0  0
    0.5315    5.9812    0.6250 C   0  0  0  0  0  0  0  0  0  0  0  0
    1.1813    7.1885    0.5967 C   0  0  0  0  0  0  0  0  0  0  0  0
    2.3584    7.4846    1.1968 C   0  0  0  0  0  0  0  0  0  0  0  0
    3.1040    6.6469    2.0109 C   0  0  0  0  0  0  0  0  0  0  0  0
    4.3239    6.1292    1.5347 C   0  0  0  0  0  0  0  0  0  0  0  0
    5.0676    5.2212    2.3086 C   0  0  0  0  0  0  0  0  0  0  0  0
    4.5978    4.8291    3.5710 C   0  0  0  0  0  0  0  0  0  0  0  0
    5.5103    3.6627    4.5216 Cl  0  0  0  0  0  0  0  0  0  0  0  0
    3.3998    5.3615    4.0719 C   0  0  0  0  0  0  0  0  0  0  0  0
    2.6555    6.2726    3.3002 C   0  0  0  0  0  0  0  0  0  0  0  0
    1.1459    6.9024    3.9613 Cl  0  0  0  0  0  0  0  0  0  0  0  0
    2.7631    8.7232    0.9007 C   0  0  0  0  0  0  0  0  0  0  0  0
    3.7661    9.3685    1.1713 O   0  0  0  0  0  0  0  0  0  0  0  0
    1.8027    9.3113    0.1002 N   0  0  0  0  0  0  0  0  0  0  0  0
    0.8555    8.3090   -0.1002 C   0  0  0  0  0  0  0  0  0  0  0  0
    0.0097    8.5743   -0.9400 O   0  0  0  0  0  0  0  0  0  0  0  0
   -0.7703    5.6967    0.1739 C   0  0  0  0  0  0  0  0  0  0  0  0
   -1.8806    6.5337   -0.0665 C   0  0  0  0  0  0  0  0  0  0  0  0
   -3.1199    5.9566   -0.4168 C   0  0  0  0  0  0  0  0  0  0  0  0
   -3.2781    4.5548   -0.4708 C   0  0  0  0  0  0  0  0  0  0  0  0
   -2.2110    3.7124   -0.1157 C   0  0  0  0  0  0  0  0  0  0  0  0
   -0.9912    4.3128    0.2216 C   0  0  0  0  0  0  0  0  0  0  0  0
    1.9164    1.2178    0.2225 N   0  0  0  0  0  0  0  0  0  0  0  0
    3.2983    0.8777   -0.1546 C   0  0  0  0  0  0  0  0  0  0  0  0
    3.4676   -0.6119   -0.5167 C   0  0  0  0  0  0  0  0  0  0  0  0
    2.5307   -0.9528   -1.5485 O   0  0  0  0  0  0  0  0  0  0  0  0
    2.7414   -2.2454   -2.1424 C   0  0  0  0  0  0  0  0  0  0  0  0
    1.3782   -2.8070   -2.5817 C   0  0  0  0  0  0  0  0  0  0  0  0
    0.9291   -2.0806   -3.7376 O   0  0  0  0  0  0  0  0  0  0  0  0
   -0.1728   -2.6488   -4.4768 C   0  0  0  0  0  0  0  0  0  0  0  0
   -1.4777   -2.6252   -3.6366 C   0  0  0  0  0  0  0  0  0  0  0  0
   -1.5354   -3.7133   -2.6487 N   0  0  0  0  0  0  0  0  0  0  0  0
   -2.0303   -4.9898   -2.8828 C   0  0  0  0  0  0  0  0  0  0  0  0
   -2.1439   -5.5631   -4.1721 C   0  0  0  0  0  0  0  0  0  0  0  0
   -2.6672   -6.8701   -4.3469 C   0  0  0  0  0  0  0  0  0  0  0  0
   -3.1232   -7.6134   -3.2375 C   0  0  0  0  0  0  0  0  0  0  0  0
   -3.0159   -7.0289   -1.9695 C   0  0  0  0  0  0  0  0  0  0  0  0
   -2.4572   -5.7645   -1.7989 C   0  0  0  0  0  0  0  0  0  0  0  0
   -2.4572   -5.4729   -0.4536 C   0  0  0  0  0  0  0  0  0  0  0  0
   -1.7507   -4.6482    0.1110 O   0  0  0  0  0  0  0  0  0  0  0  0
   -3.0699   -6.5415    0.2263 N   0  0  0  0  0  0  0  0  0  0  0  0
   -3.0052   -6.8362    1.6735 C   0  0  0  0  0  0  0  0  0  0  0  0
   -3.8592   -5.8728    2.5319 C   0  0  0  0  0  0  0  0  0  0  0  0
   -3.0880   -4.5949    2.9339 C   0  0  0  0  0  0  0  0  0  0  0  0
   -1.7018   -4.8868    3.4654 C   0  0  0  0  0  0  0  0  0  0  0  0
   -1.1156   -4.1532    4.2483 O   0  0  0  0  0  0  0  0  0  0  0  0
   -1.0321   -6.0436    3.0559 N   0  0  0  0  0  0  0  0  0  0  0  0
   -1.5737   -6.9830    2.1674 C   0  0  0  0  0  0  0  0  0  0  0  0
   -0.8930   -7.9756    1.9509 O   0  0  0  0  0  0  0  0  0  0  0  0
   -3.3826   -7.5106   -0.7367 C   0  0  0  0  0  0  0  0  0  0  0  0
   -4.1613   -8.4279   -0.4960 O   0  0  0  0  0  0  0  0  0  0  0  0
   -0.5414    1.7852    1.0912 H   0  0  0  0  0  0  0  0  0  0  0  0
   -0.0417    2.6778    2.5358 H   0  0  0  0  0  0  0  0  0  0  0  0
    2.0031    4.5375    1.4316 H   0  0  0  0  0  0  0  0  0  0  0  0
    4.6882    6.4202    0.5540 H   0  0  0  0  0  0  0  0  0  0  0  0
    6.0015    4.8198    1.9295 H   0  0  0  0  0  0  0  0  0  0  0  0
    3.0454    5.0616    5.0541 H   0  0  0  0  0  0  0  0  0  0  0  0
    2.0020   10.0286   -0.5820 H   0  0  0  0  0  0  0  0  0  0  0  0
   -1.8291    7.6043    0.0736 H   0  0  0  0  0  0  0  0  0  0  0  0
   -3.9710    6.6012   -0.6186 H   0  0  0  0  0  0  0  0  0  0  0  0
   -4.2393    4.1291   -0.7445 H   0  0  0  0  0  0  0  0  0  0  0  0
   -2.3399    2.6359   -0.0869 H   0  0  0  0  0  0  0  0  0  0  0  0
    1.1903    1.0822   -0.4709 H   0  0  0  0  0  0  0  0  0  0  0  0
    3.9788    1.1147    0.6750 H   0  0  0  0  0  0  0  0  0  0  0  0
    3.5941    1.4980   -1.0106 H   0  0  0  0  0  0  0  0  0  0  0  0
    3.2859   -1.2242    0.3782 H   0  0  0  0  0  0  0  0  0  0  0  0
    4.4995   -0.7855   -0.8511 H   0  0  0  0  0  0  0  0  0  0  0  0
    3.1767   -2.9462   -1.4166 H   0  0  0  0  0  0  0  0  0  0  0  0
    3.4199   -2.1775   -3.0038 H   0  0  0  0  0  0  0  0  0  0  0  0
    0.6745   -2.7027   -1.7494 H   0  0  0  0  0  0  0  0  0  0  0  0
    1.4829   -3.8741   -2.8148 H   0  0  0  0  0  0  0  0  0  0  0  0
   -0.3341   -2.0426   -5.3798 H   0  0  0  0  0  0  0  0  0  0  0  0
    0.0590   -3.6706   -4.8048 H   0  0  0  0  0  0  0  0  0  0  0  0
   -1.5503   -1.6604   -3.1213 H   0  0  0  0  0  0  0  0  0  0  0  0
   -2.3469   -2.7014   -4.3046 H   0  0  0  0  0  0  0  0  0  0  0  0
   -1.4053   -3.4755   -1.6688 H   0  0  0  0  0  0  0  0  0  0  0  0
   -1.8171   -5.0099   -5.0460 H   0  0  0  0  0  0  0  0  0  0  0  0
   -2.7274   -7.3009   -5.3451 H   0  0  0  0  0  0  0  0  0  0  0  0
   -3.5316   -8.6128   -3.3545 H   0  0  0  0  0  0  0  0  0  0  0  0
   -3.4574   -7.8288    1.7992 H   0  0  0  0  0  0  0  0  0  0  0  0
   -4.1528   -6.4035    3.4489 H   0  0  0  0  0  0  0  0  0  0  0  0
   -4.7885   -5.6184    2.0070 H   0  0  0  0  0  0  0  0  0  0  0  0
   -3.0072   -3.9097    2.0847 H   0  0  0  0  0  0  0  0  0  0  0  0
   -3.6521   -4.0497    3.6994 H   0  0  0  0  0  0  0  0  0  0  0  0
   -0.0920   -6.1945    3.3915 H   0  0  0  0  0  0  0  0  0  0  0  0
  1  2  2  0  0  0  0
  2  3  1  0  0  0  0
  2 28  1  0  0  0  0
  3  4  1  0  0  0  0
  3 57  1  0  0  0  0
  3 58  1  0  0  0  0
  4  5  1  0  0  0  0
  4 27  1  0  0  0  0
  5  6  2  0  0  0  0
  5 59  1  0  0  0  0
  6  7  1  0  0  0  0
  6 22  1  0  0  0  0
  7  8  2  0  0  0  0
  7 20  1  0  0  0  0
  8  9  1  0  0  0  0
  8 17  1  0  0  0  0
  9 10  2  0  0  0  0
  9 15  1  0  0  0  0
 10 11  1  0  0  0  0
 10 60  1  0  0  0  0
 11 12  2  0  0  0  0
 11 61  1  0  0  0  0
 12 13  1  0  0  0  0
 12 14  1  0  0  0  0
 14 15  2  0  0  0  0
 14 62  1  0  0  0  0
 15 16  1  0  0  0  0
 17 18  2  0  0  0  0
 17 19  1  0  0  0  0
 19 20  1  0  0  0  0
 19 63  1  0  0  0  0
 20 21  2  0  0  0  0
 22 23  2  0  0  0  0
 22 27  1  0  0  0  0
 23 24  1  0  0  0  0
 23 64  1  0  0  0  0
 24 25  2  0  0  0  0
 24 65  1  0  0  0  0
 25 26  1  0  0  0  0
 25 66  1  0  0  0  0
 26 27  2  0  0  0  0
 26 67  1  0  0  0  0
 28 29  1  0  0  0  0
 28 68  1  0  0  0  0
 29 30  1  0  0  0  0
 29 69  1  0  0  0  0
 29 70  1  0  0  0  0
 30 31  1  0  0  0  0
 30 71  1  0  0  0  0
 30 72  1  0  0  0  0
 31 32  1  0  0  0  0
 32 33  1  0  0  0  0
 32 73  1  0  0  0  0
 32 74  1  0  0  0  0
 33 34  1  0  0  0  0
 33 75  1  0  0  0  0
 33 76  1  0  0  0  0
 34 35  1  0  0  0  0
 35 36  1  0  0  0  0
 35 77  1  0  0  0  0
 35 78  1  0  0  0  0
 36 37  1  0  0  0  0
 36 79  1  0  0  0  0
 36 80  1  0  0  0  0
 37 38  1  0  0  0  0
 37 81  1  0  0  0  0
 38 39  2  0  0  0  0
 38 43  1  0  0  0  0
 39 40  1  0  0  0  0
 39 82  1  0  0  0  0
 40 41  2  0  0  0  0
 40 83  1  0  0  0  0
 41 42  1  0  0  0  0
 41 84  1  0  0  0  0
 42 43  2  0  0  0  0
 42 55  1  0  0  0  0
 43 44  1  0  0  0  0
 44 45  2  0  0  0  0
 44 46  1  0  0  0  0
 46 47  1  0  0  0  0
 46 55  1  0  0  0  0
 47 48  1  0  0  0  0
 47 53  1  0  0  0  0
 47 85  1  0  0  0  0
 48 49  1  0  0  0  0
 48 86  1  0  0  0  0
 48 87  1  0  0  0  0
 49 50  1  0  0  0  0
 49 88  1  0  0  0  0
 49 89  1  0  0  0  0
 50 51  2  0  0  0  0
 50 52  1  0  0  0  0
 52 53  1  0  0  0  0
 52 90  1  0  0  0  0
 53 54  2  0  0  0  0
 55 56  2  0  0  0  0
M  END
$$$$
protac3895RUN2
  chem.cr 07102519423D
protac3895RUN2
 90 96  0  0  0  0  0  0  0  0999 V2000
    2.8307    0.8696    2.0488 O   0  0  0  0  0  0  0  0  0  0  0  0
    1.7677    0.7441    1.4517 C   0  0  0  0  0  0  0  0  0  0  0  0
    0.4309    1.1219    2.0404 C   0  0  0  0  0  0  0  0  0  0  0  0
   -0.1236    2.3655    1.4730 N   0  0  0  0  0  0  0  0  0  0  0  0
    0.7172    3.4516    1.2431 C   0  0  0  0  0  0  0  0  0  0  0  0
    0.3557    4.1497    0.1420 C   0  0  0  0  0  0  0  0  0  0  0  0
    1.0532    5.1878   -0.4394 C   0  0  0  0  0  0  0  0  0  0  0  0
    2.2343    5.7048    0.0042 C   0  0  0  0  0  0  0  0  0  0  0  0
    2.9905    5.2594    1.0716 C   0  0  0  0  0  0  0  0  0  0  0  0
    3.8780    4.1819    0.8702 C   0  0  0  0  0  0  0  0  0  0  0  0
    4.6287    3.6704    1.9410 C   0  0  0  0  0  0  0  0  0  0  0  0
    4.5031    4.2376    3.2189 C   0  0  0  0  0  0  0  0  0  0  0  0
    5.4265    3.5827    4.5646 Cl  0  0  0  0  0  0  0  0  0  0  0  0
    3.6288    5.3160    3.4278 C   0  0  0  0  0  0  0  0  0  0  0  0
    2.8734    5.8302    2.3579 C   0  0  0  0  0  0  0  0  0  0  0  0
    1.7608    7.1643    2.6540 Cl  0  0  0  0  0  0  0  0  0  0  0  0
    2.6903    6.6781   -0.7864 C   0  0  0  0  0  0  0  0  0  0  0  0
    3.7126    7.3503   -0.7935 O   0  0  0  0  0  0  0  0  0  0  0  0
    1.7736    6.8686   -1.7991 N   0  0  0  0  0  0  0  0  0  0  0  0
    0.8084    5.8881   -1.5819 C   0  0  0  0  0  0  0  0  0  0  0  0
   -0.0148    5.8207   -2.4796 O   0  0  0  0  0  0  0  0  0  0  0  0
   -0.8466    3.5298   -0.2836 C   0  0  0  0  0  0  0  0  0  0  0  0
   -1.8510    3.8786   -1.2150 C   0  0  0  0  0  0  0  0  0  0  0  0
   -2.9629    3.0305   -1.4066 C   0  0  0  0  0  0  0  0  0  0  0  0
   -3.1318    1.8660   -0.6349 C   0  0  0  0  0  0  0  0  0  0  0  0
   -2.1965    1.5567    0.3636 C   0  0  0  0  0  0  0  0  0  0  0  0
   -1.0879    2.4004    0.5113 C   0  0  0  0  0  0  0  0  0  0  0  0
    1.7771    0.5291    0.0661 N   0  0  0  0  0  0  0  0  0  0  0  0
    2.9238   -0.0454   -0.6467 C   0  0  0  0  0  0  0  0  0  0  0  0
    2.8256   -1.5770   -0.6761 C   0  0  0  0  0  0  0  0  0  0  0  0
    1.6751   -1.9266   -1.4612 O   0  0  0  0  0  0  0  0  0  0  0  0
    1.9582   -2.5591   -2.7141 C   0  0  0  0  0  0  0  0  0  0  0  0
    0.6183   -2.8731   -3.3907 C   0  0  0  0  0  0  0  0  0  0  0  0
    0.0647   -1.6435   -3.8987 O   0  0  0  0  0  0  0  0  0  0  0  0
   -1.1898   -1.7619   -4.5874 C   0  0  0  0  0  0  0  0  0  0  0  0
   -2.3556   -1.2982   -3.6714 C   0  0  0  0  0  0  0  0  0  0  0  0
   -2.4001   -1.9592   -2.3529 N   0  0  0  0  0  0  0  0  0  0  0  0
   -2.4836   -3.3285   -2.1261 C   0  0  0  0  0  0  0  0  0  0  0  0
   -2.8158   -4.2675   -3.1340 C   0  0  0  0  0  0  0  0  0  0  0  0
   -2.7735   -5.6604   -2.8771 C   0  0  0  0  0  0  0  0  0  0  0  0
   -2.3961   -6.1434   -1.6076 C   0  0  0  0  0  0  0  0  0  0  0  0
   -2.1073   -5.2033   -0.6129 C   0  0  0  0  0  0  0  0  0  0  0  0
   -2.1603   -3.8347   -0.8593 C   0  0  0  0  0  0  0  0  0  0  0  0
   -1.8175   -3.1660    0.2982 C   0  0  0  0  0  0  0  0  0  0  0  0
   -2.1443   -2.0224    0.5967 O   0  0  0  0  0  0  0  0  0  0  0  0
   -1.5646   -4.1330    1.2867 N   0  0  0  0  0  0  0  0  0  0  0  0
   -0.9742   -3.9211    2.6269 C   0  0  0  0  0  0  0  0  0  0  0  0
   -1.9887   -4.2980    3.7283 C   0  0  0  0  0  0  0  0  0  0  0  0
   -3.0604   -3.1914    3.8422 C   0  0  0  0  0  0  0  0  0  0  0  0
   -2.4364   -1.8332    4.0716 C   0  0  0  0  0  0  0  0  0  0  0  0
   -2.9621   -0.9532    4.7323 O   0  0  0  0  0  0  0  0  0  0  0  0
   -1.1217   -1.6089    3.6442 N   0  0  0  0  0  0  0  0  0  0  0  0
   -0.4094   -2.5223    2.8521 C   0  0  0  0  0  0  0  0  0  0  0  0
    0.7325   -2.2036    2.5554 O   0  0  0  0  0  0  0  0  0  0  0  0
   -1.7324   -5.3885    0.6940 C   0  0  0  0  0  0  0  0  0  0  0  0
   -1.4132   -6.4321    1.2515 O   0  0  0  0  0  0  0  0  0  0  0  0
   -0.2700    0.2980    1.8706 H   0  0  0  0  0  0  0  0  0  0  0  0
    0.5462    1.2527    3.1211 H   0  0  0  0  0  0  0  0  0  0  0  0
    1.5705    3.5435    1.9066 H   0  0  0  0  0  0  0  0  0  0  0  0
    3.9675    3.7341   -0.1159 H   0  0  0  0  0  0  0  0  0  0  0  0
    5.2965    2.8275    1.7846 H   0  0  0  0  0  0  0  0  0  0  0  0
    3.5226    5.7448    4.4202 H   0  0  0  0  0  0  0  0  0  0  0  0
    2.0046    7.2296   -2.7112 H   0  0  0  0  0  0  0  0  0  0  0  0
   -1.8573    4.8036   -1.7586 H   0  0  0  0  0  0  0  0  0  0  0  0
   -3.7191    3.3008   -2.1386 H   0  0  0  0  0  0  0  0  0  0  0  0
   -4.0088    1.2395   -0.7694 H   0  0  0  0  0  0  0  0  0  0  0  0
   -2.3496    0.7060    1.0210 H   0  0  0  0  0  0  0  0  0  0  0  0
    0.8961    0.6202   -0.4297 H   0  0  0  0  0  0  0  0  0  0  0  0
    3.8516    0.2563   -0.1435 H   0  0  0  0  0  0  0  0  0  0  0  0
    2.9421    0.3483   -1.6707 H   0  0  0  0  0  0  0  0  0  0  0  0
    2.7169   -1.9592    0.3489 H   0  0  0  0  0  0  0  0  0  0  0  0
    3.7475   -1.9960   -1.0992 H   0  0  0  0  0  0  0  0  0  0  0  0
    2.4978   -3.4984   -2.5357 H   0  0  0  0  0  0  0  0  0  0  0  0
    2.5646   -1.9196   -3.3685 H   0  0  0  0  0  0  0  0  0  0  0  0
   -0.0407   -3.3486   -2.6577 H   0  0  0  0  0  0  0  0  0  0  0  0
    0.7946   -3.5861   -4.2062 H   0  0  0  0  0  0  0  0  0  0  0  0
   -1.1775   -1.1162   -5.4749 H   0  0  0  0  0  0  0  0  0  0  0  0
   -1.3504   -2.7845   -4.9416 H   0  0  0  0  0  0  0  0  0  0  0  0
   -2.2474   -0.2160   -3.5129 H   0  0  0  0  0  0  0  0  0  0  0  0
   -3.3080   -1.4569   -4.1945 H   0  0  0  0  0  0  0  0  0  0  0  0
   -2.1376   -1.4041   -1.5438 H   0  0  0  0  0  0  0  0  0  0  0  0
   -3.0998   -3.9268   -4.1240 H   0  0  0  0  0  0  0  0  0  0  0  0
   -3.0217   -6.3660   -3.6678 H   0  0  0  0  0  0  0  0  0  0  0  0
   -2.3329   -7.2089   -1.4004 H   0  0  0  0  0  0  0  0  0  0  0  0
   -0.1234   -4.6102    2.7006 H   0  0  0  0  0  0  0  0  0  0  0  0
   -1.4572   -4.3991    4.6860 H   0  0  0  0  0  0  0  0  0  0  0  0
   -2.4516   -5.2697    3.5127 H   0  0  0  0  0  0  0  0  0  0  0  0
   -3.6568   -3.1467    2.9218 H   0  0  0  0  0  0  0  0  0  0  0  0
   -3.7543   -3.4208    4.6602 H   0  0  0  0  0  0  0  0  0  0  0  0
   -0.6721   -0.7497    3.9172 H   0  0  0  0  0  0  0  0  0  0  0  0
  1  2  2  0  0  0  0
  2  3  1  0  0  0  0
  2 28  1  0  0  0  0
  3  4  1  0  0  0  0
  3 57  1  0  0  0  0
  3 58  1  0  0  0  0
  4  5  1  0  0  0  0
  4 27  1  0  0  0  0
  5  6  2  0  0  0  0
  5 59  1  0  0  0  0
  6  7  1  0  0  0  0
  6 22  1  0  0  0  0
  7  8  2  0  0  0  0
  7 20  1  0  0  0  0
  8  9  1  0  0  0  0
  8 17  1  0  0  0  0
  9 10  2  0  0  0  0
  9 15  1  0  0  0  0
 10 11  1  0  0  0  0
 10 60  1  0  0  0  0
 11 12  2  0  0  0  0
 11 61  1  0  0  0  0
 12 13  1  0  0  0  0
 12 14  1  0  0  0  0
 14 15  2  0  0  0  0
 14 62  1  0  0  0  0
 15 16  1  0  0  0  0
 17 18  2  0  0  0  0
 17 19  1  0  0  0  0
 19 20  1  0  0  0  0
 19 63  1  0  0  0  0
 20 21  2  0  0  0  0
 22 23  2  0  0  0  0
 22 27  1  0  0  0  0
 23 24  1  0  0  0  0
 23 64  1  0  0  0  0
 24 25  2  0  0  0  0
 24 65  1  0  0  0  0
 25 26  1  0  0  0  0
 25 66  1  0  0  0  0
 26 27  2  0  0  0  0
 26 67  1  0  0  0  0
 28 29  1  0  0  0  0
 28 68  1  0  0  0  0
 29 30  1  0  0  0  0
 29 69  1  0  0  0  0
 29 70  1  0  0  0  0
 30 31  1  0  0  0  0
 30 71  1  0  0  0  0
 30 72  1  0  0  0  0
 31 32  1  0  0  0  0
 32 33  1  0  0  0  0
 32 73  1  0  0  0  0
 32 74  1  0  0  0  0
 33 34  1  0  0  0  0
 33 75  1  0  0  0  0
 33 76  1  0  0  0  0
 34 35  1  0  0  0  0
 35 36  1  0  0  0  0
 35 77  1  0  0  0  0
 35 78  1  0  0  0  0
 36 37  1  0  0  0  0
 36 79  1  0  0  0  0
 36 80  1  0  0  0  0
 37 38  1  0  0  0  0
 37 81  1  0  0  0  0
 38 39  2  0  0  0  0
 38 43  1  0  0  0  0
 39 40  1  0  0  0  0
 39 82  1  0  0  0  0
 40 41  2  0  0  0  0
 40 83  1  0  0  0  0
 41 42  1  0  0  0  0
 41 84  1  0  0  0  0
 42 43  2  0  0  0  0
 42 55  1  0  0  0  0
 43 44  1  0  0  0  0
 44 45  2  0  0  0  0
 44 46  1  0  0  0  0
 46 47  1  0  0  0  0
 46 55  1  0  0  0  0
 47 48  1  0  0  0  0
 47 53  1  0  0  0  0
 47 85  1  0  0  0  0
 48 49  1  0  0  0  0
 48 86  1  0  0  0  0
 48 87  1  0  0  0  0
 49 50  1  0  0  0  0
 49 88  1  0  0  0  0
 49 89  1  0  0  0  0
 50 51  2  0  0  0  0
 50 52  1  0  0  0  0
 52 53  1  0  0  0  0
 52 90  1  0  0  0  0
 53 54  2  0  0  0  0
 55 56  2  0  0  0  0
M  END
$$$$
protac3895RUN2
  chem.cr 07102519423D
protac3895RUN2
 90 96  0  0  0  0  0  0  0  0999 V2000
    4.3489    1.1587    1.4458 O   0  0  0  0  0  0  0  0  0  0  0  0
    3.3263    1.2461    0.7835 C   0  0  0  0  0  0  0  0  0  0  0  0
    1.9853    1.5756    1.3889 C   0  0  0  0  0  0  0  0  0  0  0  0
    1.2387    2.6154    0.6624 N   0  0  0  0  0  0  0  0  0  0  0  0
    1.7475    3.8868    0.3925 C   0  0  0  0  0  0  0  0  0  0  0  0
    0.9643    4.5290   -0.5083 C   0  0  0  0  0  0  0  0  0  0  0  0
    1.2112    5.7337   -1.1203 C   0  0  0  0  0  0  0  0  0  0  0  0
    2.1773    6.6259   -0.7802 C   0  0  0  0  0  0  0  0  0  0  0  0
    3.0631    6.5308    0.2777 C   0  0  0  0  0  0  0  0  0  0  0  0
    4.4249    6.2832    0.0162 C   0  0  0  0  0  0  0  0  0  0  0  0
    5.3453    6.1827    1.0728 C   0  0  0  0  0  0  0  0  0  0  0  0
    4.9083    6.3281    2.3991 C   0  0  0  0  0  0  0  0  0  0  0  0
    6.0609    6.1940    3.7210 Cl  0  0  0  0  0  0  0  0  0  0  0  0
    3.5568    6.5949    2.6695 C   0  0  0  0  0  0  0  0  0  0  0  0
    2.6350    6.7023    1.6134 C   0  0  0  0  0  0  0  0  0  0  0  0
    0.9485    7.0598    1.9864 Cl  0  0  0  0  0  0  0  0  0  0  0  0
    2.1730    7.6954   -1.5760 C   0  0  0  0  0  0  0  0  0  0  0  0
    2.8343    8.7268   -1.6058 O   0  0  0  0  0  0  0  0  0  0  0  0
    1.1954    7.5140   -2.5301 N   0  0  0  0  0  0  0  0  0  0  0  0
    0.6048    6.2955   -2.2033 C   0  0  0  0  0  0  0  0  0  0  0  0
   -0.2513    5.9316   -2.9940 O   0  0  0  0  0  0  0  0  0  0  0  0
   -0.1256    3.6591   -0.7299 C   0  0  0  0  0  0  0  0  0  0  0  0
   -1.4011    3.8623   -1.3012 C   0  0  0  0  0  0  0  0  0  0  0  0
   -2.3287    2.7995   -1.3390 C   0  0  0  0  0  0  0  0  0  0  0  0
   -2.0290    1.5537   -0.7509 C   0  0  0  0  0  0  0  0  0  0  0  0
   -0.8166    1.3809   -0.0629 C   0  0  0  0  0  0  0  0  0  0  0  0
    0.0880    2.4532   -0.0517 C   0  0  0  0  0  0  0  0  0  0  0  0
    3.3056    0.5346   -0.4184 N   0  0  0  0  0  0  0  0  0  0  0  0
    3.0174    1.2119   -1.6906 C   0  0  0  0  0  0  0  0  0  0  0  0
    3.2503    0.2846   -2.9028 C   0  0  0  0  0  0  0  0  0  0  0  0
    2.1727   -0.6619   -3.0189 O   0  0  0  0  0  0  0  0  0  0  0  0
    0.9018   -0.1246   -3.4294 C   0  0  0  0  0  0  0  0  0  0  0  0
    0.1115   -1.2562   -4.1109 C   0  0  0  0  0  0  0  0  0  0  0  0
   -0.7258   -1.9027   -3.1412 O   0  0  0  0  0  0  0  0  0  0  0  0
   -1.3474   -3.0994   -3.6240 C   0  0  0  0  0  0  0  0  0  0  0  0
   -2.5489   -3.4327   -2.7177 C   0  0  0  0  0  0  0  0  0  0  0  0
   -2.1393   -3.8594   -1.3701 N   0  0  0  0  0  0  0  0  0  0  0  0
   -1.9923   -5.1840   -0.9729 C   0  0  0  0  0  0  0  0  0  0  0  0
   -1.6646   -6.2262   -1.8728 C   0  0  0  0  0  0  0  0  0  0  0  0
   -1.5008   -7.5595   -1.4193 C   0  0  0  0  0  0  0  0  0  0  0  0
   -1.6774   -7.8810   -0.0583 C   0  0  0  0  0  0  0  0  0  0  0  0
   -2.0100   -6.8438    0.8209 C   0  0  0  0  0  0  0  0  0  0  0  0
   -2.1561   -5.5294    0.3764 C   0  0  0  0  0  0  0  0  0  0  0  0
   -2.4761   -4.7439    1.4592 C   0  0  0  0  0  0  0  0  0  0  0  0
   -3.0469   -3.6586    1.4274 O   0  0  0  0  0  0  0  0  0  0  0  0
   -2.5423   -5.5663    2.5979 N   0  0  0  0  0  0  0  0  0  0  0  0
   -2.4073   -5.1174    4.0023 C   0  0  0  0  0  0  0  0  0  0  0  0
   -3.7511   -5.2294    4.7561 C   0  0  0  0  0  0  0  0  0  0  0  0
   -4.6864   -4.0668    4.3554 C   0  0  0  0  0  0  0  0  0  0  0  0
   -4.0195   -2.7205    4.5292 C   0  0  0  0  0  0  0  0  0  0  0  0
   -4.6226   -1.7058    4.8480 O   0  0  0  0  0  0  0  0  0  0  0  0
   -2.6271   -2.6246    4.4209 N   0  0  0  0  0  0  0  0  0  0  0  0
   -1.8030   -3.7232    4.1335 C   0  0  0  0  0  0  0  0  0  0  0  0
   -0.5984   -3.5090    4.1127 O   0  0  0  0  0  0  0  0  0  0  0  0
   -2.2425   -6.8658    2.1738 C   0  0  0  0  0  0  0  0  0  0  0  0
   -2.2002   -7.8207    2.9431 O   0  0  0  0  0  0  0  0  0  0  0  0
    1.3886    0.6598    1.4296 H   0  0  0  0  0  0  0  0  0  0  0  0
    2.1382    1.9133    2.4199 H   0  0  0  0  0  0  0  0  0  0  0  0
    2.7088    4.1559    0.8194 H   0  0  0  0  0  0  0  0  0  0  0  0
    4.7699    6.1775   -1.0086 H   0  0  0  0  0  0  0  0  0  0  0  0
    6.3953    5.9972    0.8634 H   0  0  0  0  0  0  0  0  0  0  0  0
    3.2244    6.7273    3.6949 H   0  0  0  0  0  0  0  0  0  0  0  0
    0.7155    8.2612   -3.0063 H   0  0  0  0  0  0  0  0  0  0  0  0
   -1.7292    4.8269   -1.6577 H   0  0  0  0  0  0  0  0  0  0  0  0
   -3.3015    2.9539   -1.7975 H   0  0  0  0  0  0  0  0  0  0  0  0
   -2.7587    0.7483   -0.7753 H   0  0  0  0  0  0  0  0  0  0  0  0
   -0.6148    0.4538    0.4648 H   0  0  0  0  0  0  0  0  0  0  0  0
    3.8668   -0.3086   -0.4552 H   0  0  0  0  0  0  0  0  0  0  0  0
    3.6810    2.0836   -1.7726 H   0  0  0  0  0  0  0  0  0  0  0  0
    1.9844    1.5813   -1.6906 H   0  0  0  0  0  0  0  0  0  0  0  0
    4.2025   -0.2460   -2.7784 H   0  0  0  0  0  0  0  0  0  0  0  0
    3.3293    0.8837   -3.8197 H   0  0  0  0  0  0  0  0  0  0  0  0
    1.0460    0.6806   -4.1606 H   0  0  0  0  0  0  0  0  0  0  0  0
    0.3380    0.2757   -2.5759 H   0  0  0  0  0  0  0  0  0  0  0  0
    0.8151   -1.9674   -4.5632 H   0  0  0  0  0  0  0  0  0  0  0  0
   -0.5040   -0.8270   -4.9119 H   0  0  0  0  0  0  0  0  0  0  0  0
   -1.7167   -2.9526   -4.6469 H   0  0  0  0  0  0  0  0  0  0  0  0
   -0.6307   -3.9306   -3.6337 H   0  0  0  0  0  0  0  0  0  0  0  0
   -3.1839   -2.5399   -2.6384 H   0  0  0  0  0  0  0  0  0  0  0  0
   -3.1543   -4.2192   -3.1874 H   0  0  0  0  0  0  0  0  0  0  0  0
   -2.2756   -3.1967   -0.6129 H   0  0  0  0  0  0  0  0  0  0  0  0
   -1.5171   -6.0094   -2.9253 H   0  0  0  0  0  0  0  0  0  0  0  0
   -1.2356   -8.3431   -2.1247 H   0  0  0  0  0  0  0  0  0  0  0  0
   -1.5596   -8.9005    0.3040 H   0  0  0  0  0  0  0  0  0  0  0  0
   -1.6996   -5.8024    4.4902 H   0  0  0  0  0  0  0  0  0  0  0  0
   -3.5608   -5.1845    5.8375 H   0  0  0  0  0  0  0  0  0  0  0  0
   -4.2218   -6.2005    4.5504 H   0  0  0  0  0  0  0  0  0  0  0  0
   -4.9949   -4.1763    3.3076 H   0  0  0  0  0  0  0  0  0  0  0  0
   -5.6031   -4.0975    4.9570 H   0  0  0  0  0  0  0  0  0  0  0  0
   -2.2008   -1.7161    4.5163 H   0  0  0  0  0  0  0  0  0  0  0  0
  1  2  2  0  0  0  0
  2  3  1  0  0  0  0
  2 28  1  0  0  0  0
  3  4  1  0  0  0  0
  3 57  1  0  0  0  0
  3 58  1  0  0  0  0
  4  5  1  0  0  0  0
  4 27  1  0  0  0  0
  5  6  2  0  0  0  0
  5 59  1  0  0  0  0
  6  7  1  0  0  0  0
  6 22  1  0  0  0  0
  7  8  2  0  0  0  0
  7 20  1  0  0  0  0
  8  9  1  0  0  0  0
  8 17  1  0  0  0  0
  9 10  2  0  0  0  0
  9 15  1  0  0  0  0
 10 11  1  0  0  0  0
 10 60  1  0  0  0  0
 11 12  2  0  0  0  0
 11 61  1  0  0  0  0
 12 13  1  0  0  0  0
 12 14  1  0  0  0  0
 14 15  2  0  0  0  0
 14 62  1  0  0  0  0
 15 16  1  0  0  0  0
 17 18  2  0  0  0  0
 17 19  1  0  0  0  0
 19 20  1  0  0  0  0
 19 63  1  0  0  0  0
 20 21  2  0  0  0  0
 22 23  2  0  0  0  0
 22 27  1  0  0  0  0
 23 24  1  0  0  0  0
 23 64  1  0  0  0  0
 24 25  2  0  0  0  0
 24 65  1  0  0  0  0
 25 26  1  0  0  0  0
 25 66  1  0  0  0  0
 26 27  2  0  0  0  0
 26 67  1  0  0  0  0
 28 29  1  0  0  0  0
 28 68  1  0  0  0  0
 29 30  1  0  0  0  0
 29 69  1  0  0  0  0
 29 70  1  0  0  0  0
 30 31  1  0  0  0  0
 30 71  1  0  0  0  0
 30 72  1  0  0  0  0
 31 32  1  0  0  0  0
 32 33  1  0  0  0  0
 32 73  1  0  0  0  0
 32 74  1  0  0  0  0
 33 34  1  0  0  0  0
 33 75  1  0  0  0  0
 33 76  1  0  0  0  0
 34 35  1  0  0  0  0
 35 36  1  0  0  0  0
 35 77  1  0  0  0  0
 35 78  1  0  0  0  0
 36 37  1  0  0  0  0
 36 79  1  0  0  0  0
 36 80  1  0  0  0  0
 37 38  1  0  0  0  0
 37 81  1  0  0  0  0
 38 39  2  0  0  0  0
 38 43  1  0  0  0  0
 39 40  1  0  0  0  0
 39 82  1  0  0  0  0
 40 41  2  0  0  0  0
 40 83  1  0  0  0  0
 41 42  1  0  0  0  0
 41 84  1  0  0  0  0
 42 43  2  0  0  0  0
 42 55  1  0  0  0  0
 43 44  1  0  0  0  0
 44 45  2  0  0  0  0
 44 46  1  0  0  0  0
 46 47  1  0  0  0  0
 46 55  1  0  0  0  0
 47 48  1  0  0  0  0
 47 53  1  0  0  0  0
 47 85  1  0  0  0  0
 48 49  1  0  0  0  0
 48 86  1  0  0  0  0
 48 87  1  0  0  0  0
 49 50  1  0  0  0  0
 49 88  1  0  0  0  0
 49 89  1  0  0  0  0
 50 51  2  0  0  0  0
 50 52  1  0  0  0  0
 52 53  1  0  0  0  0
 52 90  1  0  0  0  0
 53 54  2  0  0  0  0
 55 56  2  0  0  0  0
M  END
$$$$
protac3895RUN2
  chem.cr 07102519423D
protac3895RUN2
 90 96  0  0  0  0  0  0  0  0999 V2000
    0.5299    2.8459   -1.8799 O   0  0  0  0  0  0  0  0  0  0  0  0
    1.7136    2.5628   -1.9846 C   0  0  0  0  0  0  0  0  0  0  0  0
    2.6313    2.3139   -0.8000 C   0  0  0  0  0  0  0  0  0  0  0  0
    2.9381    3.5017    0.0215 N   0  0  0  0  0  0  0  0  0  0  0  0
    1.8844    4.2864    0.5115 C   0  0  0  0  0  0  0  0  0  0  0  0
    2.1497    4.7777    1.7427 C   0  0  0  0  0  0  0  0  0  0  0  0
    1.3968    5.6747    2.4564 C   0  0  0  0  0  0  0  0  0  0  0  0
    0.1408    6.0947    2.1543 C   0  0  0  0  0  0  0  0  0  0  0  0
   -0.6410    5.6711    1.0935 C   0  0  0  0  0  0  0  0  0  0  0  0
   -1.3325    4.4457    1.1785 C   0  0  0  0  0  0  0  0  0  0  0  0
   -2.0877    3.9772    0.0894 C   0  0  0  0  0  0  0  0  0  0  0  0
   -2.1527    4.7298   -1.0937 C   0  0  0  0  0  0  0  0  0  0  0  0
   -3.0496    4.1188   -2.4754 Cl  0  0  0  0  0  0  0  0  0  0  0  0
   -1.4905    5.9646   -1.1795 C   0  0  0  0  0  0  0  0  0  0  0  0
   -0.7415    6.4392   -0.0884 C   0  0  0  0  0  0  0  0  0  0  0  0
    0.1020    7.9806   -0.2417 Cl  0  0  0  0  0  0  0  0  0  0  0  0
   -0.3026    7.0079    3.0189 C   0  0  0  0  0  0  0  0  0  0  0  0
   -1.3409    7.6490    3.1076 O   0  0  0  0  0  0  0  0  0  0  0  0
    0.6808    7.2083    3.9697 N   0  0  0  0  0  0  0  0  0  0  0  0
    1.7364    6.3992    3.5554 C   0  0  0  0  0  0  0  0  0  0  0  0
    2.7719    6.5641    4.1846 O   0  0  0  0  0  0  0  0  0  0  0  0
    3.3862    4.2049    2.0961 C   0  0  0  0  0  0  0  0  0  0  0  0
    4.0547    4.0741    3.3353 C   0  0  0  0  0  0  0  0  0  0  0  0
    5.2779    3.3687    3.3957 C   0  0  0  0  0  0  0  0  0  0  0  0
    5.8076    2.7370    2.2524 C   0  0  0  0  0  0  0  0  0  0  0  0
    5.0876    2.7570    1.0466 C   0  0  0  0  0  0  0  0  0  0  0  0
    3.8838    3.4725    1.0114 C   0  0  0  0  0  0  0  0  0  0  0  0
    2.1090    2.1225   -3.2534 N   0  0  0  0  0  0  0  0  0  0  0  0
    2.8060    0.8457   -3.4906 C   0  0  0  0  0  0  0  0  0  0  0  0
    2.0778   -0.3518   -2.8451 C   0  0  0  0  0  0  0  0  0  0  0  0
    2.7673   -1.5384   -3.2672 O   0  0  0  0  0  0  0  0  0  0  0  0
    2.2190   -2.7901   -2.8067 C   0  0  0  0  0  0  0  0  0  0  0  0
    0.8952   -3.0921   -3.5585 C   0  0  0  0  0  0  0  0  0  0  0  0
    1.0406   -4.3085   -4.3137 O   0  0  0  0  0  0  0  0  0  0  0  0
    0.9089   -5.5526   -3.6021 C   0  0  0  0  0  0  0  0  0  0  0  0
   -0.5894   -5.9451   -3.5447 C   0  0  0  0  0  0  0  0  0  0  0  0
   -1.2550   -5.4458   -2.3288 N   0  0  0  0  0  0  0  0  0  0  0  0
   -1.5229   -6.1766   -1.1721 C   0  0  0  0  0  0  0  0  0  0  0  0
   -1.0967   -7.5155   -0.9723 C   0  0  0  0  0  0  0  0  0  0  0  0
   -1.4133   -8.2172    0.2161 C   0  0  0  0  0  0  0  0  0  0  0  0
   -2.1584   -7.5962    1.2390 C   0  0  0  0  0  0  0  0  0  0  0  0
   -2.5651   -6.2721    1.0388 C   0  0  0  0  0  0  0  0  0  0  0  0
   -2.2558   -5.5825   -0.1329 C   0  0  0  0  0  0  0  0  0  0  0  0
   -2.7779   -4.3132   -0.0211 C   0  0  0  0  0  0  0  0  0  0  0  0
   -2.7140   -3.3937   -0.8282 O   0  0  0  0  0  0  0  0  0  0  0  0
   -3.4403   -4.2011    1.2134 N   0  0  0  0  0  0  0  0  0  0  0  0
   -3.7172   -2.9338    1.9239 C   0  0  0  0  0  0  0  0  0  0  0  0
   -4.8540   -2.1456    1.2377 C   0  0  0  0  0  0  0  0  0  0  0  0
   -5.0953   -0.8166    1.9881 C   0  0  0  0  0  0  0  0  0  0  0  0
   -3.8178   -0.0252    2.1641 C   0  0  0  0  0  0  0  0  0  0  0  0
   -3.7879    1.1915    2.2717 O   0  0  0  0  0  0  0  0  0  0  0  0
   -2.6195   -0.7136    2.3818 N   0  0  0  0  0  0  0  0  0  0  0  0
   -2.4672   -2.0782    2.1025 C   0  0  0  0  0  0  0  0  0  0  0  0
   -1.3449   -2.5354    2.2739 O   0  0  0  0  0  0  0  0  0  0  0  0
   -3.2801   -5.4319    1.8620 C   0  0  0  0  0  0  0  0  0  0  0  0
   -3.7802   -5.6772    2.9552 O   0  0  0  0  0  0  0  0  0  0  0  0
    2.1592    1.5698   -0.1491 H   0  0  0  0  0  0  0  0  0  0  0  0
    3.5801    1.8986   -1.1499 H   0  0  0  0  0  0  0  0  0  0  0  0
    1.0523    4.4841   -0.1540 H   0  0  0  0  0  0  0  0  0  0  0  0
   -1.2745    3.8503    2.0851 H   0  0  0  0  0  0  0  0  0  0  0  0
   -2.6051    3.0242    0.1632 H   0  0  0  0  0  0  0  0  0  0  0  0
   -1.5464    6.5479   -2.0944 H   0  0  0  0  0  0  0  0  0  0  0  0
    0.8045    8.0734    4.4719 H   0  0  0  0  0  0  0  0  0  0  0  0
    3.6367    4.4458    4.2589 H   0  0  0  0  0  0  0  0  0  0  0  0
    5.8049    3.2883    4.3433 H   0  0  0  0  0  0  0  0  0  0  0  0
    6.7414    2.1873    2.3198 H   0  0  0  0  0  0  0  0  0  0  0  0
    5.4472    2.2123    0.1790 H   0  0  0  0  0  0  0  0  0  0  0  0
    1.5704    2.5079   -4.0213 H   0  0  0  0  0  0  0  0  0  0  0  0
    3.8370    0.9046   -3.1175 H   0  0  0  0  0  0  0  0  0  0  0  0
    2.8580    0.6700   -4.5739 H   0  0  0  0  0  0  0  0  0  0  0  0
    1.0297   -0.3616   -3.1707 H   0  0  0  0  0  0  0  0  0  0  0  0
    2.0920   -0.2677   -1.7510 H   0  0  0  0  0  0  0  0  0  0  0  0
    2.0397   -2.7661   -1.7238 H   0  0  0  0  0  0  0  0  0  0  0  0
    2.9389   -3.5942   -3.0074 H   0  0  0  0  0  0  0  0  0  0  0  0
    0.6719   -2.2716   -4.2505 H   0  0  0  0  0  0  0  0  0  0  0  0
    0.0644   -3.1642   -2.8486 H   0  0  0  0  0  0  0  0  0  0  0  0
    1.4468   -6.3319   -4.1558 H   0  0  0  0  0  0  0  0  0  0  0  0
    1.3462   -5.5022   -2.5953 H   0  0  0  0  0  0  0  0  0  0  0  0
   -1.0958   -5.5368   -4.4303 H   0  0  0  0  0  0  0  0  0  0  0  0
   -0.6832   -7.0352   -3.6157 H   0  0  0  0  0  0  0  0  0  0  0  0
   -1.6645   -4.5160   -2.3600 H   0  0  0  0  0  0  0  0  0  0  0  0
   -0.5163   -8.0292   -1.7297 H   0  0  0  0  0  0  0  0  0  0  0  0
   -1.0747   -9.2443    0.3449 H   0  0  0  0  0  0  0  0  0  0  0  0
   -2.4079   -8.1183    2.1599 H   0  0  0  0  0  0  0  0  0  0  0  0
   -4.0608   -3.1896    2.9351 H   0  0  0  0  0  0  0  0  0  0  0  0
   -5.7709   -2.7508    1.2112 H   0  0  0  0  0  0  0  0  0  0  0  0
   -4.5773   -1.9291    0.1960 H   0  0  0  0  0  0  0  0  0  0  0  0
   -5.8256   -0.2062    1.4413 H   0  0  0  0  0  0  0  0  0  0  0  0
   -5.5284   -1.0138    2.9772 H   0  0  0  0  0  0  0  0  0  0  0  0
   -1.7925   -0.1791    2.6019 H   0  0  0  0  0  0  0  0  0  0  0  0
  1  2  2  0  0  0  0
  2  3  1  0  0  0  0
  2 28  1  0  0  0  0
  3  4  1  0  0  0  0
  3 57  1  0  0  0  0
  3 58  1  0  0  0  0
  4  5  1  0  0  0  0
  4 27  1  0  0  0  0
  5  6  2  0  0  0  0
  5 59  1  0  0  0  0
  6  7  1  0  0  0  0
  6 22  1  0  0  0  0
  7  8  2  0  0  0  0
  7 20  1  0  0  0  0
  8  9  1  0  0  0  0
  8 17  1  0  0  0  0
  9 10  2  0  0  0  0
  9 15  1  0  0  0  0
 10 11  1  0  0  0  0
 10 60  1  0  0  0  0
 11 12  2  0  0  0  0
 11 61  1  0  0  0  0
 12 13  1  0  0  0  0
 12 14  1  0  0  0  0
 14 15  2  0  0  0  0
 14 62  1  0  0  0  0
 15 16  1  0  0  0  0
 17 18  2  0  0  0  0
 17 19  1  0  0  0  0
 19 20  1  0  0  0  0
 19 63  1  0  0  0  0
 20 21  2  0  0  0  0
 22 23  2  0  0  0  0
 22 27  1  0  0  0  0
 23 24  1  0  0  0  0
 23 64  1  0  0  0  0
 24 25  2  0  0  0  0
 24 65  1  0  0  0  0
 25 26  1  0  0  0  0
 25 66  1  0  0  0  0
 26 27  2  0  0  0  0
 26 67  1  0  0  0  0
 28 29  1  0  0  0  0
 28 68  1  0  0  0  0
 29 30  1  0  0  0  0
 29 69  1  0  0  0  0
 29 70  1  0  0  0  0
 30 31  1  0  0  0  0
 30 71  1  0  0  0  0
 30 72  1  0  0  0  0
 31 32  1  0  0  0  0
 32 33  1  0  0  0  0
 32 73  1  0  0  0  0
 32 74  1  0  0  0  0
 33 34  1  0  0  0  0
 33 75  1  0  0  0  0
 33 76  1  0  0  0  0
 34 35  1  0  0  0  0
 35 36  1  0  0  0  0
 35 77  1  0  0  0  0
 35 78  1  0  0  0  0
 36 37  1  0  0  0  0
 36 79  1  0  0  0  0
 36 80  1  0  0  0  0
 37 38  1  0  0  0  0
 37 81  1  0  0  0  0
 38 39  2  0  0  0  0
 38 43  1  0  0  0  0
 39 40  1  0  0  0  0
 39 82  1  0  0  0  0
 40 41  2  0  0  0  0
 40 83  1  0  0  0  0
 41 42  1  0  0  0  0
 41 84  1  0  0  0  0
 42 43  2  0  0  0  0
 42 55  1  0  0  0  0
 43 44  1  0  0  0  0
 44 45  2  0  0  0  0
 44 46  1  0  0  0  0
 46 47  1  0  0  0  0
 46 55  1  0  0  0  0
 47 48  1  0  0  0  0
 47 53  1  0  0  0  0
 47 85  1  0  0  0  0
 48 49  1  0  0  0  0
 48 86  1  0  0  0  0
 48 87  1  0  0  0  0
 49 50  1  0  0  0  0
 49 88  1  0  0  0  0
 49 89  1  0  0  0  0
 50 51  2  0  0  0  0
 50 52  1  0  0  0  0
 52 53  1  0  0  0  0
 52 90  1  0  0  0  0
 53 54  2  0  0  0  0
 55 56  2  0  0  0  0
M  END
$$$$
protac3895RUN2
  chem.cr 07102519423D
protac3895RUN2
 90 96  0  0  0  0  0  0  0  0999 V2000
    2.5158    3.1143   -2.4851 O   0  0  0  0  0  0  0  0  0  0  0  0
    1.7824    2.6328   -1.6319 C   0  0  0  0  0  0  0  0  0  0  0  0
    1.9715    2.8247   -0.1450 C   0  0  0  0  0  0  0  0  0  0  0  0
    2.6189    4.0933    0.2365 N   0  0  0  0  0  0  0  0  0  0  0  0
    1.9909    4.9348    1.1628 C   0  0  0  0  0  0  0  0  0  0  0  0
    2.8783    5.4559    2.0434 C   0  0  0  0  0  0  0  0  0  0  0  0
    2.5983    6.1539    3.1927 C   0  0  0  0  0  0  0  0  0  0  0  0
    1.3769    6.5981    3.5876 C   0  0  0  0  0  0  0  0  0  0  0  0
    0.1773    6.4612    2.9161 C   0  0  0  0  0  0  0  0  0  0  0  0
   -0.6708    5.3887    3.2504 C   0  0  0  0  0  0  0  0  0  0  0  0
   -1.9054    5.2286    2.5992 C   0  0  0  0  0  0  0  0  0  0  0  0
   -2.3034    6.1494    1.6174 C   0  0  0  0  0  0  0  0  0  0  0  0
   -3.8600    5.9637    0.8206 Cl  0  0  0  0  0  0  0  0  0  0  0  0
   -1.4699    7.2298    1.2855 C   0  0  0  0  0  0  0  0  0  0  0  0
   -0.2313    7.3884    1.9341 C   0  0  0  0  0  0  0  0  0  0  0  0
    0.7941    8.7554    1.5035 Cl  0  0  0  0  0  0  0  0  0  0  0  0
    1.4233    7.2203    4.7655 C   0  0  0  0  0  0  0  0  0  0  0  0
    0.5817    7.7697    5.4624 O   0  0  0  0  0  0  0  0  0  0  0  0
    2.7231    7.1662    5.2222 N   0  0  0  0  0  0  0  0  0  0  0  0
    3.4256    6.5112    4.2154 C   0  0  0  0  0  0  0  0  0  0  0  0
    4.5972    6.3102    4.4900 O   0  0  0  0  0  0  0  0  0  0  0  0
    4.1381    5.0450    1.5634 C   0  0  0  0  0  0  0  0  0  0  0  0
    5.4568    5.4818    1.8310 C   0  0  0  0  0  0  0  0  0  0  0  0
    6.5403    4.8959    1.1405 C   0  0  0  0  0  0  0  0  0  0  0  0
    6.3237    3.9287    0.1375 C   0  0  0  0  0  0  0  0  0  0  0  0
    5.0111    3.5874   -0.2282 C   0  0  0  0  0  0  0  0  0  0  0  0
    3.9579    4.1685    0.4890 C   0  0  0  0  0  0  0  0  0  0  0  0
    0.9528    1.5558   -1.9837 N   0  0  0  0  0  0  0  0  0  0  0  0
    1.0028    0.8814   -3.2915 C   0  0  0  0  0  0  0  0  0  0  0  0
    1.5993   -0.5264   -3.1535 C   0  0  0  0  0  0  0  0  0  0  0  0
    1.5871   -1.1272   -4.4556 O   0  0  0  0  0  0  0  0  0  0  0  0
    1.8138   -2.5458   -4.4834 C   0  0  0  0  0  0  0  0  0  0  0  0
    0.4749   -3.2518   -4.1533 C   0  0  0  0  0  0  0  0  0  0  0  0
    0.6764   -4.6711   -4.0563 O   0  0  0  0  0  0  0  0  0  0  0  0
    1.4875   -5.1168   -2.9591 C   0  0  0  0  0  0  0  0  0  0  0  0
    0.9340   -6.4780   -2.5060 C   0  0  0  0  0  0  0  0  0  0  0  0
   -0.4320   -6.2989   -1.9878 N   0  0  0  0  0  0  0  0  0  0  0  0
   -0.9337   -6.8828   -0.8305 C   0  0  0  0  0  0  0  0  0  0  0  0
   -0.4050   -8.0773   -0.2849 C   0  0  0  0  0  0  0  0  0  0  0  0
   -0.9389   -8.6389    0.9021 C   0  0  0  0  0  0  0  0  0  0  0  0
   -2.0116   -8.0159    1.5711 C   0  0  0  0  0  0  0  0  0  0  0  0
   -2.5264   -6.8346    1.0239 C   0  0  0  0  0  0  0  0  0  0  0  0
   -2.0063   -6.2859   -0.1510 C   0  0  0  0  0  0  0  0  0  0  0  0
   -2.7150   -5.1385   -0.4340 C   0  0  0  0  0  0  0  0  0  0  0  0
   -2.7632   -4.5285   -1.4969 O   0  0  0  0  0  0  0  0  0  0  0  0
   -3.6973   -4.9803    0.5537 N   0  0  0  0  0  0  0  0  0  0  0  0
   -4.6389   -3.8519    0.6961 C   0  0  0  0  0  0  0  0  0  0  0  0
   -5.8490   -4.0574   -0.2387 C   0  0  0  0  0  0  0  0  0  0  0  0
   -6.8151   -2.8599   -0.1139 C   0  0  0  0  0  0  0  0  0  0  0  0
   -6.1061   -1.5419   -0.3362 C   0  0  0  0  0  0  0  0  0  0  0  0
   -6.6833   -0.5223   -0.6822 O   0  0  0  0  0  0  0  0  0  0  0  0
   -4.7856   -1.4019    0.1067 N   0  0  0  0  0  0  0  0  0  0  0  0
   -3.9831   -2.4876    0.4885 C   0  0  0  0  0  0  0  0  0  0  0  0
   -2.8725   -2.1961    0.9110 O   0  0  0  0  0  0  0  0  0  0  0  0
   -3.5506   -6.0299    1.4640 C   0  0  0  0  0  0  0  0  0  0  0  0
   -4.3874   -6.2685    2.3271 O   0  0  0  0  0  0  0  0  0  0  0  0
    1.0004    2.7568    0.3565 H   0  0  0  0  0  0  0  0  0  0  0  0
    2.5971    2.0063    0.2298 H   0  0  0  0  0  0  0  0  0  0  0  0
    0.9087    4.9786    1.1413 H   0  0  0  0  0  0  0  0  0  0  0  0
   -0.3677    4.6845    4.0216 H   0  0  0  0  0  0  0  0  0  0  0  0
   -2.5596    4.4033    2.8672 H   0  0  0  0  0  0  0  0  0  0  0  0
   -1.7867    7.9487    0.5339 H   0  0  0  0  0  0  0  0  0  0  0  0
    3.1344    7.8077    5.8816 H   0  0  0  0  0  0  0  0  0  0  0  0
    5.6775    6.2979    2.4993 H   0  0  0  0  0  0  0  0  0  0  0  0
    7.5532    5.2214    1.3628 H   0  0  0  0  0  0  0  0  0  0  0  0
    7.1680    3.4970   -0.3948 H   0  0  0  0  0  0  0  0  0  0  0  0
    4.8192    2.9219   -1.0651 H   0  0  0  0  0  0  0  0  0  0  0  0
    0.3647    1.1529   -1.2654 H   0  0  0  0  0  0  0  0  0  0  0  0
    1.6007    1.4632   -4.0067 H   0  0  0  0  0  0  0  0  0  0  0  0
   -0.0151    0.8065   -3.6969 H   0  0  0  0  0  0  0  0  0  0  0  0
    1.0033   -1.1044   -2.4365 H   0  0  0  0  0  0  0  0  0  0  0  0
    2.6286   -0.4581   -2.7754 H   0  0  0  0  0  0  0  0  0  0  0  0
    2.5967   -2.8255   -3.7666 H   0  0  0  0  0  0  0  0  0  0  0  0
    2.1416   -2.8562   -5.4846 H   0  0  0  0  0  0  0  0  0  0  0  0
   -0.2438   -3.0304   -4.9531 H   0  0  0  0  0  0  0  0  0  0  0  0
    0.0516   -2.8685   -3.2164 H   0  0  0  0  0  0  0  0  0  0  0  0
    2.5351   -5.2192   -3.2712 H   0  0  0  0  0  0  0  0  0  0  0  0
    1.4430   -4.4139   -2.1159 H   0  0  0  0  0  0  0  0  0  0  0  0
    0.9265   -7.1721   -3.3570 H   0  0  0  0  0  0  0  0  0  0  0  0
    1.5949   -6.8866   -1.7304 H   0  0  0  0  0  0  0  0  0  0  0  0
   -0.9659   -5.5157   -2.3532 H   0  0  0  0  0  0  0  0  0  0  0  0
    0.4117   -8.5880   -0.7821 H   0  0  0  0  0  0  0  0  0  0  0  0
   -0.5191   -9.5593    1.3007 H   0  0  0  0  0  0  0  0  0  0  0  0
   -2.4299   -8.4331    2.4837 H   0  0  0  0  0  0  0  0  0  0  0  0
   -5.0054   -3.8576    1.7311 H   0  0  0  0  0  0  0  0  0  0  0  0
   -6.3587   -4.9983    0.0082 H   0  0  0  0  0  0  0  0  0  0  0  0
   -5.4971   -4.1437   -1.2766 H   0  0  0  0  0  0  0  0  0  0  0  0
   -7.6329   -2.9588   -0.8411 H   0  0  0  0  0  0  0  0  0  0  0  0
   -7.2792   -2.8481    0.8810 H   0  0  0  0  0  0  0  0  0  0  0  0
   -4.3642   -0.4874    0.0668 H   0  0  0  0  0  0  0  0  0  0  0  0
  1  2  2  0  0  0  0
  2  3  1  0  0  0  0
  2 28  1  0  0  0  0
  3  4  1  0  0  0  0
  3 57  1  0  0  0  0
  3 58  1  0  0  0  0
  4  5  1  0  0  0  0
  4 27  1  0  0  0  0
  5  6  2  0  0  0  0
  5 59  1  0  0  0  0
  6  7  1  0  0  0  0
  6 22  1  0  0  0  0
  7  8  2  0  0  0  0
  7 20  1  0  0  0  0
  8  9  1  0  0  0  0
  8 17  1  0  0  0  0
  9 10  2  0  0  0  0
  9 15  1  0  0  0  0
 10 11  1  0  0  0  0
 10 60  1  0  0  0  0
 11 12  2  0  0  0  0
 11 61  1  0  0  0  0
 12 13  1  0  0  0  0
 12 14  1  0  0  0  0
 14 15  2  0  0  0  0
 14 62  1  0  0  0  0
 15 16  1  0  0  0  0
 17 18  2  0  0  0  0
 17 19  1  0  0  0  0
 19 20  1  0  0  0  0
 19 63  1  0  0  0  0
 20 21  2  0  0  0  0
 22 23  2  0  0  0  0
 22 27  1  0  0  0  0
 23 24  1  0  0  0  0
 23 64  1  0  0  0  0
 24 25  2  0  0  0  0
 24 65  1  0  0  0  0
 25 26  1  0  0  0  0
 25 66  1  0  0  0  0
 26 27  2  0  0  0  0
 26 67  1  0  0  0  0
 28 29  1  0  0  0  0
 28 68  1  0  0  0  0
 29 30  1  0  0  0  0
 29 69  1  0  0  0  0
 29 70  1  0  0  0  0
 30 31  1  0  0  0  0
 30 71  1  0  0  0  0
 30 72  1  0  0  0  0
 31 32  1  0  0  0  0
 32 33  1  0  0  0  0
 32 73  1  0  0  0  0
 32 74  1  0  0  0  0
 33 34  1  0  0  0  0
 33 75  1  0  0  0  0
 33 76  1  0  0  0  0
 34 35  1  0  0  0  0
 35 36  1  0  0  0  0
 35 77  1  0  0  0  0
 35 78  1  0  0  0  0
 36 37  1  0  0  0  0
 36 79  1  0  0  0  0
 36 80  1  0  0  0  0
 37 38  1  0  0  0  0
 37 81  1  0  0  0  0
 38 39  2  0  0  0  0
 38 43  1  0  0  0  0
 39 40  1  0  0  0  0
 39 82  1  0  0  0  0
 40 41  2  0  0  0  0
 40 83  1  0  0  0  0
 41 42  1  0  0  0  0
 41 84  1  0  0  0  0
 42 43  2  0  0  0  0
 42 55  1  0  0  0  0
 43 44  1  0  0  0  0
 44 45  2  0  0  0  0
 44 46  1  0  0  0  0
 46 47  1  0  0  0  0
 46 55  1  0  0  0  0
 47 48  1  0  0  0  0
 47 53  1  0  0  0  0
 47 85  1  0  0  0  0
 48 49  1  0  0  0  0
 48 86  1  0  0  0  0
 48 87  1  0  0  0  0
 49 50  1  0  0  0  0
 49 88  1  0  0  0  0
 49 89  1  0  0  0  0
 50 51  2  0  0  0  0
 50 52  1  0  0  0  0
 52 53  1  0  0  0  0
 52 90  1  0  0  0  0
 53 54  2  0  0  0  0
 55 56  2  0  0  0  0
M  END
$$$$
protac3895RUN2
  chem.cr 07102519423D
protac3895RUN2
 90 96  0  0  0  0  0  0  0  0999 V2000
   -4.1991   -0.6407   -0.8547 O   0  0  0  0  0  0  0  0  0  0  0  0
   -3.3965   -0.2833   -0.0032 C   0  0  0  0  0  0  0  0  0  0  0  0
   -2.5908   -1.2474    0.8391 C   0  0  0  0  0  0  0  0  0  0  0  0
   -3.3724   -2.0320    1.8216 N   0  0  0  0  0  0  0  0  0  0  0  0
   -2.8639   -3.2583    2.2695 C   0  0  0  0  0  0  0  0  0  0  0  0
   -3.2016   -3.5024    3.5568 C   0  0  0  0  0  0  0  0  0  0  0  0
   -2.9664   -4.6502    4.2741 C   0  0  0  0  0  0  0  0  0  0  0  0
   -2.0740   -5.6164    3.9445 C   0  0  0  0  0  0  0  0  0  0  0  0
   -1.1607   -5.5562    2.9089 C   0  0  0  0  0  0  0  0  0  0  0  0
   -0.1330   -4.5917    2.9612 C   0  0  0  0  0  0  0  0  0  0  0  0
    0.8010   -4.4915    1.9176 C   0  0  0  0  0  0  0  0  0  0  0  0
    0.7169   -5.3610    0.8182 C   0  0  0  0  0  0  0  0  0  0  0  0
    1.8900   -5.2367   -0.4881 Cl  0  0  0  0  0  0  0  0  0  0  0  0
   -0.3007   -6.3257    0.7593 C   0  0  0  0  0  0  0  0  0  0  0  0
   -1.2370   -6.4294    1.8013 C   0  0  0  0  0  0  0  0  0  0  0  0
   -2.5226   -7.6269    1.6729 Cl  0  0  0  0  0  0  0  0  0  0  0  0
   -2.0710   -6.6160    4.8304 C   0  0  0  0  0  0  0  0  0  0  0  0
   -1.3901   -7.6280    4.9628 O   0  0  0  0  0  0  0  0  0  0  0  0
   -3.0330   -6.3401    5.7789 N   0  0  0  0  0  0  0  0  0  0  0  0
   -3.5511   -5.0980    5.4159 C   0  0  0  0  0  0  0  0  0  0  0  0
   -4.4717   -4.7036    6.1200 O   0  0  0  0  0  0  0  0  0  0  0  0
   -3.9050   -2.3566    3.9687 C   0  0  0  0  0  0  0  0  0  0  0  0
   -4.2942   -1.8977    5.2469 C   0  0  0  0  0  0  0  0  0  0  0  0
   -4.9466   -0.6543    5.3683 C   0  0  0  0  0  0  0  0  0  0  0  0
   -5.1763    0.1545    4.2381 C   0  0  0  0  0  0  0  0  0  0  0  0
   -4.6894   -0.2435    2.9790 C   0  0  0  0  0  0  0  0  0  0  0  0
   -4.0369   -1.4798    2.8861 C   0  0  0  0  0  0  0  0  0  0  0  0
   -3.0335    1.0729    0.0759 N   0  0  0  0  0  0  0  0  0  0  0  0
   -3.6341    2.1364   -0.7487 C   0  0  0  0  0  0  0  0  0  0  0  0
   -2.5540    3.0316   -1.3803 C   0  0  0  0  0  0  0  0  0  0  0  0
   -1.8890    3.7306   -0.3144 O   0  0  0  0  0  0  0  0  0  0  0  0
   -0.9747    4.7690   -0.7071 C   0  0  0  0  0  0  0  0  0  0  0  0
    0.2287    4.1517   -1.4616 C   0  0  0  0  0  0  0  0  0  0  0  0
    1.4187    4.9157   -1.1945 O   0  0  0  0  0  0  0  0  0  0  0  0
    2.0181    4.7385    0.1029 C   0  0  0  0  0  0  0  0  0  0  0  0
    3.4639    5.2644    0.0126 C   0  0  0  0  0  0  0  0  0  0  0  0
    4.1792    4.5441   -1.0534 N   0  0  0  0  0  0  0  0  0  0  0  0
    4.6555    3.2534   -0.8696 C   0  0  0  0  0  0  0  0  0  0  0  0
    5.4609    2.8904    0.2375 C   0  0  0  0  0  0  0  0  0  0  0  0
    5.9171    1.5586    0.4026 C   0  0  0  0  0  0  0  0  0  0  0  0
    5.5601    0.5599   -0.5302 C   0  0  0  0  0  0  0  0  0  0  0  0
    4.7584    0.9340   -1.6150 C   0  0  0  0  0  0  0  0  0  0  0  0
    4.3273    2.2479   -1.7866 C   0  0  0  0  0  0  0  0  0  0  0  0
    3.5418    2.3022   -2.9170 C   0  0  0  0  0  0  0  0  0  0  0  0
    3.3486    3.2866   -3.6170 O   0  0  0  0  0  0  0  0  0  0  0  0
    3.4783    1.0075   -3.4583 N   0  0  0  0  0  0  0  0  0  0  0  0
    2.4578    0.5043   -4.4042 C   0  0  0  0  0  0  0  0  0  0  0  0
    3.0990    0.2209   -5.7796 C   0  0  0  0  0  0  0  0  0  0  0  0
    3.3313    1.5511   -6.5276 C   0  0  0  0  0  0  0  0  0  0  0  0
    2.0557    2.3558   -6.6422 C   0  0  0  0  0  0  0  0  0  0  0  0
    1.7783    3.0416   -7.6148 O   0  0  0  0  0  0  0  0  0  0  0  0
    1.0673    2.2124   -5.6585 N   0  0  0  0  0  0  0  0  0  0  0  0
    1.2371    1.4135   -4.5175 C   0  0  0  0  0  0  0  0  0  0  0  0
    0.3158    1.4070   -3.7082 O   0  0  0  0  0  0  0  0  0  0  0  0
    4.2529    0.1778   -2.6418 C   0  0  0  0  0  0  0  0  0  0  0  0
    4.2773   -1.0425   -2.7710 O   0  0  0  0  0  0  0  0  0  0  0  0
   -2.0963   -1.9463    0.1553 H   0  0  0  0  0  0  0  0  0  0  0  0
   -1.8082   -0.7077    1.3822 H   0  0  0  0  0  0  0  0  0  0  0  0
   -2.3683   -3.9016    1.5451 H   0  0  0  0  0  0  0  0  0  0  0  0
   -0.0684   -3.9235    3.8152 H   0  0  0  0  0  0  0  0  0  0  0  0
    1.5911   -3.7457    1.9622 H   0  0  0  0  0  0  0  0  0  0  0  0
   -0.3631   -6.9940   -0.0922 H   0  0  0  0  0  0  0  0  0  0  0  0
   -3.0776   -6.7390    6.7017 H   0  0  0  0  0  0  0  0  0  0  0  0
   -4.0669   -2.4444    6.1508 H   0  0  0  0  0  0  0  0  0  0  0  0
   -5.2747   -0.3104    6.3439 H   0  0  0  0  0  0  0  0  0  0  0  0
   -5.6998    1.1023    4.3446 H   0  0  0  0  0  0  0  0  0  0  0  0
   -4.8318    0.3870    2.1068 H   0  0  0  0  0  0  0  0  0  0  0  0
   -2.2908    1.3394    0.7103 H   0  0  0  0  0  0  0  0  0  0  0  0
   -4.2966    2.7493   -0.1218 H   0  0  0  0  0  0  0  0  0  0  0  0
   -4.2487    1.6965   -1.5483 H   0  0  0  0  0  0  0  0  0  0  0  0
   -3.0210    3.7403   -2.0771 H   0  0  0  0  0  0  0  0  0  0  0  0
   -1.8508    2.4045   -1.9451 H   0  0  0  0  0  0  0  0  0  0  0  0
   -0.6221    5.3034    0.1827 H   0  0  0  0  0  0  0  0  0  0  0  0
   -1.4738    5.5039   -1.3532 H   0  0  0  0  0  0  0  0  0  0  0  0
    0.0164    4.1594   -2.5388 H   0  0  0  0  0  0  0  0  0  0  0  0
    0.3790    3.1054   -1.1654 H   0  0  0  0  0  0  0  0  0  0  0  0
    1.4660    5.2895    0.8771 H   0  0  0  0  0  0  0  0  0  0  0  0
    2.0384    3.6761    0.3789 H   0  0  0  0  0  0  0  0  0  0  0  0
    3.4376    6.3377   -0.2197 H   0  0  0  0  0  0  0  0  0  0  0  0
    3.9711    5.1365    0.9775 H   0  0  0  0  0  0  0  0  0  0  0  0
    3.7996    4.6957   -1.9846 H   0  0  0  0  0  0  0  0  0  0  0  0
    5.7533    3.6417    0.9655 H   0  0  0  0  0  0  0  0  0  0  0  0
    6.5427    1.3026    1.2537 H   0  0  0  0  0  0  0  0  0  0  0  0
    5.8903   -0.4691   -0.4166 H   0  0  0  0  0  0  0  0  0  0  0  0
    2.0943   -0.4513   -4.0027 H   0  0  0  0  0  0  0  0  0  0  0  0
    2.4236   -0.4139   -6.3673 H   0  0  0  0  0  0  0  0  0  0  0  0
    4.0432   -0.3265   -5.6576 H   0  0  0  0  0  0  0  0  0  0  0  0
    4.0815    2.1562   -6.0008 H   0  0  0  0  0  0  0  0  0  0  0  0
    3.7345    1.3564   -7.5309 H   0  0  0  0  0  0  0  0  0  0  0  0
    0.2314    2.7682   -5.7367 H   0  0  0  0  0  0  0  0  0  0  0  0
  1  2  2  0  0  0  0
  2  3  1  0  0  0  0
  2 28  1  0  0  0  0
  3  4  1  0  0  0  0
  3 57  1  0  0  0  0
  3 58  1  0  0  0  0
  4  5  1  0  0  0  0
  4 27  1  0  0  0  0
  5  6  2  0  0  0  0
  5 59  1  0  0  0  0
  6  7  1  0  0  0  0
  6 22  1  0  0  0  0
  7  8  2  0  0  0  0
  7 20  1  0  0  0  0
  8  9  1  0  0  0  0
  8 17  1  0  0  0  0
  9 10  2  0  0  0  0
  9 15  1  0  0  0  0
 10 11  1  0  0  0  0
 10 60  1  0  0  0  0
 11 12  2  0  0  0  0
 11 61  1  0  0  0  0
 12 13  1  0  0  0  0
 12 14  1  0  0  0  0
 14 15  2  0  0  0  0
 14 62  1  0  0  0  0
 15 16  1  0  0  0  0
 17 18  2  0  0  0  0
 17 19  1  0  0  0  0
 19 20  1  0  0  0  0
 19 63  1  0  0  0  0
 20 21  2  0  0  0  0
 22 23  2  0  0  0  0
 22 27  1  0  0  0  0
 23 24  1  0  0  0  0
 23 64  1  0  0  0  0
 24 25  2  0  0  0  0
 24 65  1  0  0  0  0
 25 26  1  0  0  0  0
 25 66  1  0  0  0  0
 26 27  2  0  0  0  0
 26 67  1  0  0  0  0
 28 29  1  0  0  0  0
 28 68  1  0  0  0  0
 29 30  1  0  0  0  0
 29 69  1  0  0  0  0
 29 70  1  0  0  0  0
 30 31  1  0  0  0  0
 30 71  1  0  0  0  0
 30 72  1  0  0  0  0
 31 32  1  0  0  0  0
 32 33  1  0  0  0  0
 32 73  1  0  0  0  0
 32 74  1  0  0  0  0
 33 34  1  0  0  0  0
 33 75  1  0  0  0  0
 33 76  1  0  0  0  0
 34 35  1  0  0  0  0
 35 36  1  0  0  0  0
 35 77  1  0  0  0  0
 35 78  1  0  0  0  0
 36 37  1  0  0  0  0
 36 79  1  0  0  0  0
 36 80  1  0  0  0  0
 37 38  1  0  0  0  0
 37 81  1  0  0  0  0
 38 39  2  0  0  0  0
 38 43  1  0  0  0  0
 39 40  1  0  0  0  0
 39 82  1  0  0  0  0
 40 41  2  0  0  0  0
 40 83  1  0  0  0  0
 41 42  1  0  0  0  0
 41 84  1  0  0  0  0
 42 43  2  0  0  0  0
 42 55  1  0  0  0  0
 43 44  1  0  0  0  0
 44 45  2  0  0  0  0
 44 46  1  0  0  0  0
 46 47  1  0  0  0  0
 46 55  1  0  0  0  0
 47 48  1  0  0  0  0
 47 53  1  0  0  0  0
 47 85  1  0  0  0  0
 48 49  1  0  0  0  0
 48 86  1  0  0  0  0
 48 87  1  0  0  0  0
 49 50  1  0  0  0  0
 49 88  1  0  0  0  0
 49 89  1  0  0  0  0
 50 51  2  0  0  0  0
 50 52  1  0  0  0  0
 52 53  1  0  0  0  0
 52 90  1  0  0  0  0
 53 54  2  0  0  0  0
 55 56  2  0  0  0  0
M  END
$$$$
protac3895RUN2
  chem.cr 07102519423D
protac3895RUN2
 90 96  0  0  0  0  0  0  0  0999 V2000
   -1.3179   -1.6666    0.2400 O   0  0  0  0  0  0  0  0  0  0  0  0
   -1.3114   -0.4463    0.2773 C   0  0  0  0  0  0  0  0  0  0  0  0
   -1.5607    0.4068    1.5123 C   0  0  0  0  0  0  0  0  0  0  0  0
   -1.9809   -0.2987    2.7517 N   0  0  0  0  0  0  0  0  0  0  0  0
   -1.4636   -1.5434    3.1257 C   0  0  0  0  0  0  0  0  0  0  0  0
   -2.3009   -2.1943    3.9659 C   0  0  0  0  0  0  0  0  0  0  0  0
   -2.0773   -3.3779    4.6236 C   0  0  0  0  0  0  0  0  0  0  0  0
   -1.0445   -4.2350    4.4087 C   0  0  0  0  0  0  0  0  0  0  0  0
   -0.0386   -4.1094    3.4712 C   0  0  0  0  0  0  0  0  0  0  0  0
    1.2675   -3.7940    3.9005 C   0  0  0  0  0  0  0  0  0  0  0  0
    2.3072   -3.6565    2.9693 C   0  0  0  0  0  0  0  0  0  0  0  0
    2.0499   -3.8254    1.6007 C   0  0  0  0  0  0  0  0  0  0  0  0
    3.3567   -3.6872    0.4395 Cl  0  0  0  0  0  0  0  0  0  0  0  0
    0.7538   -4.1392    1.1630 C   0  0  0  0  0  0  0  0  0  0  0  0
   -0.2849   -4.3040    2.0930 C   0  0  0  0  0  0  0  0  0  0  0  0
   -1.8890   -4.7508    1.5129 Cl  0  0  0  0  0  0  0  0  0  0  0  0
   -1.0817   -5.2797    5.2378 C   0  0  0  0  0  0  0  0  0  0  0  0
   -0.3513   -6.2471    5.4047 O   0  0  0  0  0  0  0  0  0  0  0  0
   -2.1944   -5.1478    6.0443 N   0  0  0  0  0  0  0  0  0  0  0  0
   -2.7584   -3.9329    5.6593 C   0  0  0  0  0  0  0  0  0  0  0  0
   -3.6712   -3.5595    6.3867 O   0  0  0  0  0  0  0  0  0  0  0  0
   -3.4424   -1.3689    4.0495 C   0  0  0  0  0  0  0  0  0  0  0  0
   -4.7567   -1.6090    4.5118 C   0  0  0  0  0  0  0  0  0  0  0  0
   -5.7232   -0.5837    4.4264 C   0  0  0  0  0  0  0  0  0  0  0  0
   -5.4132    0.6527    3.8211 C   0  0  0  0  0  0  0  0  0  0  0  0
   -4.1495    0.8505    3.2369 C   0  0  0  0  0  0  0  0  0  0  0  0
   -3.2090   -0.1814    3.3458 C   0  0  0  0  0  0  0  0  0  0  0  0
   -0.6175    0.1878   -0.7549 N   0  0  0  0  0  0  0  0  0  0  0  0
   -1.3561    0.6835   -1.9267 C   0  0  0  0  0  0  0  0  0  0  0  0
   -1.5610    2.2084   -1.8992 C   0  0  0  0  0  0  0  0  0  0  0  0
   -2.5345    2.5107   -0.8815 O   0  0  0  0  0  0  0  0  0  0  0  0
   -2.6743    3.8968   -0.5141 C   0  0  0  0  0  0  0  0  0  0  0  0
   -1.6573    4.2264    0.6031 C   0  0  0  0  0  0  0  0  0  0  0  0
   -0.3599    4.3167    0.0086 O   0  0  0  0  0  0  0  0  0  0  0  0
    0.7457    4.1807    0.9058 C   0  0  0  0  0  0  0  0  0  0  0  0
    2.0224    4.2100    0.0428 C   0  0  0  0  0  0  0  0  0  0  0  0
    2.0070    3.1357   -0.9682 N   0  0  0  0  0  0  0  0  0  0  0  0
    2.6665    1.9151   -0.8838 C   0  0  0  0  0  0  0  0  0  0  0  0
    3.2771    1.4491    0.3057 C   0  0  0  0  0  0  0  0  0  0  0  0
    3.9802    0.2187    0.3334 C   0  0  0  0  0  0  0  0  0  0  0  0
    4.0792   -0.5746   -0.8269 C   0  0  0  0  0  0  0  0  0  0  0  0
    3.4400   -0.1228   -1.9857 C   0  0  0  0  0  0  0  0  0  0  0  0
    2.7500    1.0866   -2.0169 C   0  0  0  0  0  0  0  0  0  0  0  0
    2.2701    1.2688   -3.2973 C   0  0  0  0  0  0  0  0  0  0  0  0
    1.9398    2.3321   -3.8091 O   0  0  0  0  0  0  0  0  0  0  0  0
    2.6617    0.1658   -4.0752 N   0  0  0  0  0  0  0  0  0  0  0  0
    2.1223   -0.2471   -5.3929 C   0  0  0  0  0  0  0  0  0  0  0  0
    3.2199   -0.1792   -6.4780 C   0  0  0  0  0  0  0  0  0  0  0  0
    3.3916    1.2750   -6.9641 C   0  0  0  0  0  0  0  0  0  0  0  0
    2.0850    1.8293   -7.4756 C   0  0  0  0  0  0  0  0  0  0  0  0
    1.9828    2.5014   -8.4895 O   0  0  0  0  0  0  0  0  0  0  0  0
    0.8971    1.4341   -6.8506 N   0  0  0  0  0  0  0  0  0  0  0  0
    0.8546    0.5042   -5.7996 C   0  0  0  0  0  0  0  0  0  0  0  0
   -0.2523    0.2294   -5.3588 O   0  0  0  0  0  0  0  0  0  0  0  0
    3.3867   -0.6864   -3.2353 C   0  0  0  0  0  0  0  0  0  0  0  0
    3.7850   -1.7901   -3.5900 O   0  0  0  0  0  0  0  0  0  0  0  0
   -0.6510    0.9736    1.7306 H   0  0  0  0  0  0  0  0  0  0  0  0
   -2.3352    1.1300    1.2469 H   0  0  0  0  0  0  0  0  0  0  0  0
   -0.4715   -1.8038    2.7746 H   0  0  0  0  0  0  0  0  0  0  0  0
    1.4677   -3.6664    4.9608 H   0  0  0  0  0  0  0  0  0  0  0  0
    3.3141   -3.4317    3.3095 H   0  0  0  0  0  0  0  0  0  0  0  0
    0.5538   -4.2601    0.1043 H   0  0  0  0  0  0  0  0  0  0  0  0
   -2.2752   -5.5392    6.9699 H   0  0  0  0  0  0  0  0  0  0  0  0
   -5.0765   -2.5731    4.8790 H   0  0  0  0  0  0  0  0  0  0  0  0
   -6.7258   -0.7594    4.8056 H   0  0  0  0  0  0  0  0  0  0  0  0
   -6.1677    1.4323    3.7560 H   0  0  0  0  0  0  0  0  0  0  0  0
   -3.9224    1.7687    2.7040 H   0  0  0  0  0  0  0  0  0  0  0  0
    0.3163   -0.1647   -0.9280 H   0  0  0  0  0  0  0  0  0  0  0  0
   -2.3338    0.1856   -1.9774 H   0  0  0  0  0  0  0  0  0  0  0  0
   -0.7996    0.4086   -2.8338 H   0  0  0  0  0  0  0  0  0  0  0  0
   -1.9237    2.5389   -2.8805 H   0  0  0  0  0  0  0  0  0  0  0  0
   -0.5965    2.6913   -1.7175 H   0  0  0  0  0  0  0  0  0  0  0  0
   -3.6850    4.0701   -0.1227 H   0  0  0  0  0  0  0  0  0  0  0  0
   -2.5300    4.5600   -1.3778 H   0  0  0  0  0  0  0  0  0  0  0  0
   -1.6975    3.4394    1.3673 H   0  0  0  0  0  0  0  0  0  0  0  0
   -1.9226    5.1804    1.0787 H   0  0  0  0  0  0  0  0  0  0  0  0
    0.7611    5.0049    1.6324 H   0  0  0  0  0  0  0  0  0  0  0  0
    0.6905    3.2308    1.4546 H   0  0  0  0  0  0  0  0  0  0  0  0
    2.0691    5.1779   -0.4722 H   0  0  0  0  0  0  0  0  0  0  0  0
    2.9151    4.1419    0.6777 H   0  0  0  0  0  0  0  0  0  0  0  0
    1.5873    3.3474   -1.8692 H   0  0  0  0  0  0  0  0  0  0  0  0
    3.2273    2.0365    1.2158 H   0  0  0  0  0  0  0  0  0  0  0  0
    4.4620   -0.1098    1.2515 H   0  0  0  0  0  0  0  0  0  0  0  0
    4.6365   -1.5076   -0.8337 H   0  0  0  0  0  0  0  0  0  0  0  0
    1.8330   -1.3001   -5.2902 H   0  0  0  0  0  0  0  0  0  0  0  0
    2.9203   -0.8074   -7.3279 H   0  0  0  0  0  0  0  0  0  0  0  0
    4.1695   -0.5836   -6.1035 H   0  0  0  0  0  0  0  0  0  0  0  0
    3.7500    1.9133   -6.1442 H   0  0  0  0  0  0  0  0  0  0  0  0
    4.1470    1.3254   -7.7582 H   0  0  0  0  0  0  0  0  0  0  0  0
    0.0261    1.8153   -7.1868 H   0  0  0  0  0  0  0  0  0  0  0  0
  1  2  2  0  0  0  0
  2  3  1  0  0  0  0
  2 28  1  0  0  0  0
  3  4  1  0  0  0  0
  3 57  1  0  0  0  0
  3 58  1  0  0  0  0
  4  5  1  0  0  0  0
  4 27  1  0  0  0  0
  5  6  2  0  0  0  0
  5 59  1  0  0  0  0
  6  7  1  0  0  0  0
  6 22  1  0  0  0  0
  7  8  2  0  0  0  0
  7 20  1  0  0  0  0
  8  9  1  0  0  0  0
  8 17  1  0  0  0  0
  9 10  2  0  0  0  0
  9 15  1  0  0  0  0
 10 11  1  0  0  0  0
 10 60  1  0  0  0  0
 11 12  2  0  0  0  0
 11 61  1  0  0  0  0
 12 13  1  0  0  0  0
 12 14  1  0  0  0  0
 14 15  2  0  0  0  0
 14 62  1  0  0  0  0
 15 16  1  0  0  0  0
 17 18  2  0  0  0  0
 17 19  1  0  0  0  0
 19 20  1  0  0  0  0
 19 63  1  0  0  0  0
 20 21  2  0  0  0  0
 22 23  2  0  0  0  0
 22 27  1  0  0  0  0
 23 24  1  0  0  0  0
 23 64  1  0  0  0  0
 24 25  2  0  0  0  0
 24 65  1  0  0  0  0
 25 26  1  0  0  0  0
 25 66  1  0  0  0  0
 26 27  2  0  0  0  0
 26 67  1  0  0  0  0
 28 29  1  0  0  0  0
 28 68  1  0  0  0  0
 29 30  1  0  0  0  0
 29 69  1  0  0  0  0
 29 70  1  0  0  0  0
 30 31  1  0  0  0  0
 30 71  1  0  0  0  0
 30 72  1  0  0  0  0
 31 32  1  0  0  0  0
 32 33  1  0  0  0  0
 32 73  1  0  0  0  0
 32 74  1  0  0  0  0
 33 34  1  0  0  0  0
 33 75  1  0  0  0  0
 33 76  1  0  0  0  0
 34 35  1  0  0  0  0
 35 36  1  0  0  0  0
 35 77  1  0  0  0  0
 35 78  1  0  0  0  0
 36 37  1  0  0  0  0
 36 79  1  0  0  0  0
 36 80  1  0  0  0  0
 37 38  1  0  0  0  0
 37 81  1  0  0  0  0
 38 39  2  0  0  0  0
 38 43  1  0  0  0  0
 39 40  1  0  0  0  0
 39 82  1  0  0  0  0
 40 41  2  0  0  0  0
 40 83  1  0  0  0  0
 41 42  1  0  0  0  0
 41 84  1  0  0  0  0
 42 43  2  0  0  0  0
 42 55  1  0  0  0  0
 43 44  1  0  0  0  0
 44 45  2  0  0  0  0
 44 46  1  0  0  0  0
 46 47  1  0  0  0  0
 46 55  1  0  0  0  0
 47 48  1  0  0  0  0
 47 53  1  0  0  0  0
 47 85  1  0  0  0  0
 48 49  1  0  0  0  0
 48 86  1  0  0  0  0
 48 87  1  0  0  0  0
 49 50  1  0  0  0  0
 49 88  1  0  0  0  0
 49 89  1  0  0  0  0
 50 51  2  0  0  0  0
 50 52  1  0  0  0  0
 52 53  1  0  0  0  0
 52 90  1  0  0  0  0
 53 54  2  0  0  0  0
 55 56  2  0  0  0  0
M  END
$$$$
protac3895RUN2
  chem.cr 07102519423D
protac3895RUN2
 90 96  0  0  0  0  0  0  0  0999 V2000
   -0.8304   -0.3952   -2.6399 O   0  0  0  0  0  0  0  0  0  0  0  0
    0.3114   -0.2521   -2.2253 C   0  0  0  0  0  0  0  0  0  0  0  0
    0.7666    1.0008   -1.5049 C   0  0  0  0  0  0  0  0  0  0  0  0
    2.0711    0.9099   -0.8164 N   0  0  0  0  0  0  0  0  0  0  0  0
    2.3278   -0.0806    0.1335 C   0  0  0  0  0  0  0  0  0  0  0  0
    3.6491   -0.3713    0.1863 C   0  0  0  0  0  0  0  0  0  0  0  0
    4.2545   -1.3994    0.8654 C   0  0  0  0  0  0  0  0  0  0  0  0
    3.6601   -2.2382    1.7498 C   0  0  0  0  0  0  0  0  0  0  0  0
    2.3396   -2.2133    2.1512 C   0  0  0  0  0  0  0  0  0  0  0  0
    1.4352   -3.1479    1.6075 C   0  0  0  0  0  0  0  0  0  0  0  0
    0.0761   -3.1147    1.9685 C   0  0  0  0  0  0  0  0  0  0  0  0
   -0.3794   -2.1485    2.8820 C   0  0  0  0  0  0  0  0  0  0  0  0
   -2.0720   -2.1042    3.3476 Cl  0  0  0  0  0  0  0  0  0  0  0  0
    0.5175   -1.2223    3.4381 C   0  0  0  0  0  0  0  0  0  0  0  0
    1.8764   -1.2564    3.0812 C   0  0  0  0  0  0  0  0  0  0  0  0
    2.9756   -0.0723    3.7878 Cl  0  0  0  0  0  0  0  0  0  0  0  0
    4.4993   -3.1702    2.2016 C   0  0  0  0  0  0  0  0  0  0  0  0
    4.3698   -4.1260    2.9529 O   0  0  0  0  0  0  0  0  0  0  0  0
    5.7344   -2.9438    1.6288 N   0  0  0  0  0  0  0  0  0  0  0  0
    5.5257   -1.8718    0.7646 C   0  0  0  0  0  0  0  0  0  0  0  0
    6.4720   -1.6379    0.0281 O   0  0  0  0  0  0  0  0  0  0  0  0
    4.2585    0.5686   -0.6689 C   0  0  0  0  0  0  0  0  0  0  0  0
    5.5954    1.0074   -0.7987 C   0  0  0  0  0  0  0  0  0  0  0  0
    5.9056    2.0367   -1.7126 C   0  0  0  0  0  0  0  0  0  0  0  0
    4.8930    2.6831   -2.4483 C   0  0  0  0  0  0  0  0  0  0  0  0
    3.5468    2.3407   -2.2327 C   0  0  0  0  0  0  0  0  0  0  0  0
    3.2716    1.3021   -1.3336 C   0  0  0  0  0  0  0  0  0  0  0  0
    1.2792   -1.2264   -2.5292 N   0  0  0  0  0  0  0  0  0  0  0  0
    0.9878   -2.4593   -3.2808 C   0  0  0  0  0  0  0  0  0  0  0  0
    0.3870   -3.5689   -2.3918 C   0  0  0  0  0  0  0  0  0  0  0  0
   -0.9162   -3.8622   -2.9043 O   0  0  0  0  0  0  0  0  0  0  0  0
   -1.6262   -4.9072   -2.2264 C   0  0  0  0  0  0  0  0  0  0  0  0
   -3.1382   -4.6555   -2.4188 C   0  0  0  0  0  0  0  0  0  0  0  0
   -3.6219   -3.8330   -1.3407 O   0  0  0  0  0  0  0  0  0  0  0  0
   -3.2062   -2.4577   -1.3383 C   0  0  0  0  0  0  0  0  0  0  0  0
   -3.6777   -1.8580   -0.0095 C   0  0  0  0  0  0  0  0  0  0  0  0
   -3.2778   -0.4472    0.0990 N   0  0  0  0  0  0  0  0  0  0  0  0
   -4.0870    0.6371   -0.2164 C   0  0  0  0  0  0  0  0  0  0  0  0
   -5.2676    0.5151   -0.9905 C   0  0  0  0  0  0  0  0  0  0  0  0
   -6.0808    1.6404   -1.2657 C   0  0  0  0  0  0  0  0  0  0  0  0
   -5.7296    2.9157   -0.7777 C   0  0  0  0  0  0  0  0  0  0  0  0
   -4.5582    3.0248   -0.0192 C   0  0  0  0  0  0  0  0  0  0  0  0
   -3.7540    1.9179    0.2521 C   0  0  0  0  0  0  0  0  0  0  0  0
   -2.6841    2.3395    1.0127 C   0  0  0  0  0  0  0  0  0  0  0  0
   -1.6164    1.7562    1.1702 O   0  0  0  0  0  0  0  0  0  0  0  0
   -2.8009    3.7296    1.1935 N   0  0  0  0  0  0  0  0  0  0  0  0
   -2.0712    4.5699    2.1697 C   0  0  0  0  0  0  0  0  0  0  0  0
   -0.9393    5.3662    1.4805 C   0  0  0  0  0  0  0  0  0  0  0  0
    0.2908    4.4592    1.2583 C   0  0  0  0  0  0  0  0  0  0  0  0
    0.7356    3.7831    2.5372 C   0  0  0  0  0  0  0  0  0  0  0  0
    1.9036    3.5525    2.8059 O   0  0  0  0  0  0  0  0  0  0  0  0
   -0.2104    3.5155    3.5330 N   0  0  0  0  0  0  0  0  0  0  0  0
   -1.5784    3.7881    3.3836 C   0  0  0  0  0  0  0  0  0  0  0  0
   -2.2916    3.5230    4.3419 O   0  0  0  0  0  0  0  0  0  0  0  0
   -3.9845    4.1269    0.5644 C   0  0  0  0  0  0  0  0  0  0  0  0
   -4.3330    5.3004    0.4895 O   0  0  0  0  0  0  0  0  0  0  0  0
    0.7972    1.8203   -2.2286 H   0  0  0  0  0  0  0  0  0  0  0  0
    0.0060    1.2625   -0.7620 H   0  0  0  0  0  0  0  0  0  0  0  0
    1.4720   -0.5592    0.5970 H   0  0  0  0  0  0  0  0  0  0  0  0
    1.7924   -3.8972    0.9056 H   0  0  0  0  0  0  0  0  0  0  0  0
   -0.6181   -3.8391    1.5481 H   0  0  0  0  0  0  0  0  0  0  0  0
    0.1622   -0.4781    4.1461 H   0  0  0  0  0  0  0  0  0  0  0  0
    6.4318   -3.6551    1.4814 H   0  0  0  0  0  0  0  0  0  0  0  0
    6.3918    0.6339   -0.1729 H   0  0  0  0  0  0  0  0  0  0  0  0
    6.9370    2.3599   -1.8222 H   0  0  0  0  0  0  0  0  0  0  0  0
    5.1482    3.4853   -3.1368 H   0  0  0  0  0  0  0  0  0  0  0  0
    2.7521    2.8942   -2.7220 H   0  0  0  0  0  0  0  0  0  0  0  0
    2.2282   -1.0494   -2.2135 H   0  0  0  0  0  0  0  0  0  0  0  0
    1.9167   -2.8254   -3.7376 H   0  0  0  0  0  0  0  0  0  0  0  0
    0.2899   -2.2214   -4.0970 H   0  0  0  0  0  0  0  0  0  0  0  0
    0.3185   -3.2200   -1.3523 H   0  0  0  0  0  0  0  0  0  0  0  0
    1.0279   -4.4585   -2.4201 H   0  0  0  0  0  0  0  0  0  0  0  0
   -1.3999   -4.9215   -1.1521 H   0  0  0  0  0  0  0  0  0  0  0  0
   -1.3558   -5.8830   -2.6471 H   0  0  0  0  0  0  0  0  0  0  0  0
   -3.6610   -5.6194   -2.3971 H   0  0  0  0  0  0  0  0  0  0  0  0
   -3.3292   -4.1884   -3.3940 H   0  0  0  0  0  0  0  0  0  0  0  0
   -2.1163   -2.3608   -1.3979 H   0  0  0  0  0  0  0  0  0  0  0  0
   -3.6445   -1.9123   -2.1832 H   0  0  0  0  0  0  0  0  0  0  0  0
   -4.7673   -1.9665    0.0802 H   0  0  0  0  0  0  0  0  0  0  0  0
   -3.2214   -2.4328    0.8065 H   0  0  0  0  0  0  0  0  0  0  0  0
   -2.4056   -0.2282    0.5688 H   0  0  0  0  0  0  0  0  0  0  0  0
   -5.5591   -0.4516   -1.3888 H   0  0  0  0  0  0  0  0  0  0  0  0
   -6.9833    1.5188   -1.8592 H   0  0  0  0  0  0  0  0  0  0  0  0
   -6.3417    3.7871   -0.9873 H   0  0  0  0  0  0  0  0  0  0  0  0
   -2.7935    5.3022    2.5586 H   0  0  0  0  0  0  0  0  0  0  0  0
   -0.6553    6.2198    2.1145 H   0  0  0  0  0  0  0  0  0  0  0  0
   -1.2932    5.7824    0.5278 H   0  0  0  0  0  0  0  0  0  0  0  0
    0.0543    3.6875    0.5160 H   0  0  0  0  0  0  0  0  0  0  0  0
    1.1250    5.0418    0.8472 H   0  0  0  0  0  0  0  0  0  0  0  0
    0.1060    3.1024    4.3971 H   0  0  0  0  0  0  0  0  0  0  0  0
  1  2  2  0  0  0  0
  2  3  1  0  0  0  0
  2 28  1  0  0  0  0
  3  4  1  0  0  0  0
  3 57  1  0  0  0  0
  3 58  1  0  0  0  0
  4  5  1  0  0  0  0
  4 27  1  0  0  0  0
  5  6  2  0  0  0  0
  5 59  1  0  0  0  0
  6  7  1  0  0  0  0
  6 22  1  0  0  0  0
  7  8  2  0  0  0  0
  7 20  1  0  0  0  0
  8  9  1  0  0  0  0
  8 17  1  0  0  0  0
  9 10  2  0  0  0  0
  9 15  1  0  0  0  0
 10 11  1  0  0  0  0
 10 60  1  0  0  0  0
 11 12  2  0  0  0  0
 11 61  1  0  0  0  0
 12 13  1  0  0  0  0
 12 14  1  0  0  0  0
 14 15  2  0  0  0  0
 14 62  1  0  0  0  0
 15 16  1  0  0  0  0
 17 18  2  0  0  0  0
 17 19  1  0  0  0  0
 19 20  1  0  0  0  0
 19 63  1  0  0  0  0
 20 21  2  0  0  0  0
 22 23  2  0  0  0  0
 22 27  1  0  0  0  0
 23 24  1  0  0  0  0
 23 64  1  0  0  0  0
 24 25  2  0  0  0  0
 24 65  1  0  0  0  0
 25 26  1  0  0  0  0
 25 66  1  0  0  0  0
 26 27  2  0  0  0  0
 26 67  1  0  0  0  0
 28 29  1  0  0  0  0
 28 68  1  0  0  0  0
 29 30  1  0  0  0  0
 29 69  1  0  0  0  0
 29 70  1  0  0  0  0
 30 31  1  0  0  0  0
 30 71  1  0  0  0  0
 30 72  1  0  0  0  0
 31 32  1  0  0  0  0
 32 33  1  0  0  0  0
 32 73  1  0  0  0  0
 32 74  1  0  0  0  0
 33 34  1  0  0  0  0
 33 75  1  0  0  0  0
 33 76  1  0  0  0  0
 34 35  1  0  0  0  0
 35 36  1  0  0  0  0
 35 77  1  0  0  0  0
 35 78  1  0  0  0  0
 36 37  1  0  0  0  0
 36 79  1  0  0  0  0
 36 80  1  0  0  0  0
 37 38  1  0  0  0  0
 37 81  1  0  0  0  0
 38 39  2  0  0  0  0
 38 43  1  0  0  0  0
 39 40  1  0  0  0  0
 39 82  1  0  0  0  0
 40 41  2  0  0  0  0
 40 83  1  0  0  0  0
 41 42  1  0  0  0  0
 41 84  1  0  0  0  0
 42 43  2  0  0  0  0
 42 55  1  0  0  0  0
 43 44  1  0  0  0  0
 44 45  2  0  0  0  0
 44 46  1  0  0  0  0
 46 47  1  0  0  0  0
 46 55  1  0  0  0  0
 47 48  1  0  0  0  0
 47 53  1  0  0  0  0
 47 85  1  0  0  0  0
 48 49  1  0  0  0  0
 48 86  1  0  0  0  0
 48 87  1  0  0  0  0
 49 50  1  0  0  0  0
 49 88  1  0  0  0  0
 49 89  1  0  0  0  0
 50 51  2  0  0  0  0
 50 52  1  0  0  0  0
 52 53  1  0  0  0  0
 52 90  1  0  0  0  0
 53 54  2  0  0  0  0
 55 56  2  0  0  0  0
M  END
$$$$
protac3895RUN2
  chem.cr 07102519423D
protac3895RUN2
 90 96  0  0  0  0  0  0  0  0999 V2000
    1.1663   -0.1308   -0.0438 O   0  0  0  0  0  0  0  0  0  0  0  0
    1.8253   -0.3865   -1.0411 C   0  0  0  0  0  0  0  0  0  0  0  0
    3.0607    0.3770   -1.4480 C   0  0  0  0  0  0  0  0  0  0  0  0
    4.2892   -0.4361   -1.4988 N   0  0  0  0  0  0  0  0  0  0  0  0
    4.6296   -1.1845   -0.3658 C   0  0  0  0  0  0  0  0  0  0  0  0
    5.9652   -1.2021   -0.1563 C   0  0  0  0  0  0  0  0  0  0  0  0
    6.6517   -1.9083    0.8006 C   0  0  0  0  0  0  0  0  0  0  0  0
    6.1133   -2.5581    1.8646 C   0  0  0  0  0  0  0  0  0  0  0  0
    4.7776   -2.6014    2.2198 C   0  0  0  0  0  0  0  0  0  0  0  0
    4.0702   -3.8118    2.0831 C   0  0  0  0  0  0  0  0  0  0  0  0
    2.6990   -3.8727    2.3813 C   0  0  0  0  0  0  0  0  0  0  0  0
    2.0270   -2.7204    2.8181 C   0  0  0  0  0  0  0  0  0  0  0  0
    0.3041   -2.7859    3.1635 Cl  0  0  0  0  0  0  0  0  0  0  0  0
    2.7269   -1.5143    2.9790 C   0  0  0  0  0  0  0  0  0  0  0  0
    4.1022   -1.4544    2.6981 C   0  0  0  0  0  0  0  0  0  0  0  0
    4.9476    0.0785    2.9106 Cl  0  0  0  0  0  0  0  0  0  0  0  0
    7.0399   -3.1961    2.5802 C   0  0  0  0  0  0  0  0  0  0  0  0
    6.9936   -3.9118    3.5724 O   0  0  0  0  0  0  0  0  0  0  0  0
    8.2703   -2.9499    2.0041 N   0  0  0  0  0  0  0  0  0  0  0  0
    7.9803   -2.1848    0.8755 C   0  0  0  0  0  0  0  0  0  0  0  0
    8.9334   -2.0120    0.1296 O   0  0  0  0  0  0  0  0  0  0  0  0
    6.4951   -0.3671   -1.1573 C   0  0  0  0  0  0  0  0  0  0  0  0
    7.7580    0.2478   -1.3076 C   0  0  0  0  0  0  0  0  0  0  0  0
    7.9829    1.1221   -2.3928 C   0  0  0  0  0  0  0  0  0  0  0  0
    6.9478    1.4390   -3.2957 C   0  0  0  0  0  0  0  0  0  0  0  0
    5.6550    0.9295   -3.0825 C   0  0  0  0  0  0  0  0  0  0  0  0
    5.4632    0.0542   -2.0025 C   0  0  0  0  0  0  0  0  0  0  0  0
    1.3213   -1.3045   -1.9704 N   0  0  0  0  0  0  0  0  0  0  0  0
   -0.1157   -1.4158   -2.2629 C   0  0  0  0  0  0  0  0  0  0  0  0
   -0.7533   -2.6525   -1.6147 C   0  0  0  0  0  0  0  0  0  0  0  0
   -2.0207   -2.8188   -2.2566 O   0  0  0  0  0  0  0  0  0  0  0  0
   -2.7853   -3.9592   -1.8413 C   0  0  0  0  0  0  0  0  0  0  0  0
   -4.1220   -3.9355   -2.6228 C   0  0  0  0  0  0  0  0  0  0  0  0
   -5.1047   -3.1366   -1.9318 O   0  0  0  0  0  0  0  0  0  0  0  0
   -4.7688   -1.7601   -1.7128 C   0  0  0  0  0  0  0  0  0  0  0  0
   -6.0228   -1.0533   -1.1788 C   0  0  0  0  0  0  0  0  0  0  0  0
   -5.6453    0.2731   -0.6762 N   0  0  0  0  0  0  0  0  0  0  0  0
   -6.5163    1.2438   -0.2007 C   0  0  0  0  0  0  0  0  0  0  0  0
   -7.9243    1.1591   -0.3179 C   0  0  0  0  0  0  0  0  0  0  0  0
   -8.7590    2.1889    0.1856 C   0  0  0  0  0  0  0  0  0  0  0  0
   -8.2033    3.3200    0.8202 C   0  0  0  0  0  0  0  0  0  0  0  0
   -6.8094    3.3834    0.9370 C   0  0  0  0  0  0  0  0  0  0  0  0
   -5.9924    2.3704    0.4415 C   0  0  0  0  0  0  0  0  0  0  0  0
   -4.6839    2.6960    0.7223 C   0  0  0  0  0  0  0  0  0  0  0  0
   -3.6816    2.2460    0.1790 O   0  0  0  0  0  0  0  0  0  0  0  0
   -4.6686    3.9304    1.3926 N   0  0  0  0  0  0  0  0  0  0  0  0
   -3.5890    4.4133    2.2819 C   0  0  0  0  0  0  0  0  0  0  0  0
   -2.7300    5.4909    1.5850 C   0  0  0  0  0  0  0  0  0  0  0  0
   -1.7359    4.8362    0.6013 C   0  0  0  0  0  0  0  0  0  0  0  0
   -0.9111    3.7541    1.2642 C   0  0  0  0  0  0  0  0  0  0  0  0
    0.2532    3.5253    0.9727 O   0  0  0  0  0  0  0  0  0  0  0  0
   -1.4535    3.0425    2.3427 N   0  0  0  0  0  0  0  0  0  0  0  0
   -2.7364    3.2858    2.8564 C   0  0  0  0  0  0  0  0  0  0  0  0
   -3.0545    2.6485    3.8516 O   0  0  0  0  0  0  0  0  0  0  0  0
   -6.0036    4.3360    1.5145 C   0  0  0  0  0  0  0  0  0  0  0  0
   -6.3275    5.3894    2.0514 O   0  0  0  0  0  0  0  0  0  0  0  0
    2.8864    0.8306   -2.4292 H   0  0  0  0  0  0  0  0  0  0  0  0
    3.2179    1.1916   -0.7304 H   0  0  0  0  0  0  0  0  0  0  0  0
    3.8303   -1.7034    0.1530 H   0  0  0  0  0  0  0  0  0  0  0  0
    4.5872   -4.7013    1.7330 H   0  0  0  0  0  0  0  0  0  0  0  0
    2.1572   -4.8073    2.2675 H   0  0  0  0  0  0  0  0  0  0  0  0
    2.2026   -0.6237    3.3133 H   0  0  0  0  0  0  0  0  0  0  0  0
    9.0579   -3.5755    2.0647 H   0  0  0  0  0  0  0  0  0  0  0  0
    8.5520    0.1228   -0.5870 H   0  0  0  0  0  0  0  0  0  0  0  0
    8.9603    1.5809   -2.5128 H   0  0  0  0  0  0  0  0  0  0  0  0
    7.1371    2.1210   -4.1213 H   0  0  0  0  0  0  0  0  0  0  0  0
    4.8309    1.2277   -3.7229 H   0  0  0  0  0  0  0  0  0  0  0  0
    1.9818   -1.7487   -2.5955 H   0  0  0  0  0  0  0  0  0  0  0  0
   -0.2513   -1.4710   -3.3510 H   0  0  0  0  0  0  0  0  0  0  0  0
   -0.6368   -0.5153   -1.9058 H   0  0  0  0  0  0  0  0  0  0  0  0
   -0.8687   -2.4854   -0.5334 H   0  0  0  0  0  0  0  0  0  0  0  0
   -0.1181   -3.5334   -1.7771 H   0  0  0  0  0  0  0  0  0  0  0  0
   -2.9814   -3.9390   -0.7609 H   0  0  0  0  0  0  0  0  0  0  0  0
   -2.2436   -4.8841   -2.0791 H   0  0  0  0  0  0  0  0  0  0  0  0
   -4.4940   -4.9631   -2.7191 H   0  0  0  0  0  0  0  0  0  0  0  0
   -3.9497   -3.5508   -3.6369 H   0  0  0  0  0  0  0  0  0  0  0  0
   -3.9629   -1.6782   -0.9718 H   0  0  0  0  0  0  0  0  0  0  0  0
   -4.4346   -1.2797   -2.6427 H   0  0  0  0  0  0  0  0  0  0  0  0
   -6.7597   -0.9646   -1.9879 H   0  0  0  0  0  0  0  0  0  0  0  0
   -6.4618   -1.6482   -0.3672 H   0  0  0  0  0  0  0  0  0  0  0  0
   -4.6568    0.4745   -0.5570 H   0  0  0  0  0  0  0  0  0  0  0  0
   -8.3803    0.2994   -0.7987 H   0  0  0  0  0  0  0  0  0  0  0  0
   -9.8389    2.1031    0.0880 H   0  0  0  0  0  0  0  0  0  0  0  0
   -8.8319    4.1147    1.2131 H   0  0  0  0  0  0  0  0  0  0  0  0
   -4.0775    4.8897    3.1426 H   0  0  0  0  0  0  0  0  0  0  0  0
   -2.1661    6.0418    2.3499 H   0  0  0  0  0  0  0  0  0  0  0  0
   -3.3716    6.2182    1.0688 H   0  0  0  0  0  0  0  0  0  0  0  0
   -2.2757    4.3976   -0.2464 H   0  0  0  0  0  0  0  0  0  0  0  0
   -1.0665    5.5976    0.1835 H   0  0  0  0  0  0  0  0  0  0  0  0
   -0.9036    2.3023    2.7515 H   0  0  0  0  0  0  0  0  0  0  0  0
  1  2  2  0  0  0  0
  2  3  1  0  0  0  0
  2 28  1  0  0  0  0
  3  4  1  0  0  0  0
  3 57  1  0  0  0  0
  3 58  1  0  0  0  0
  4  5  1  0  0  0  0
  4 27  1  0  0  0  0
  5  6  2  0  0  0  0
  5 59  1  0  0  0  0
  6  7  1  0  0  0  0
  6 22  1  0  0  0  0
  7  8  2  0  0  0  0
  7 20  1  0  0  0  0
  8  9  1  0  0  0  0
  8 17  1  0  0  0  0
  9 10  2  0  0  0  0
  9 15  1  0  0  0  0
 10 11  1  0  0  0  0
 10 60  1  0  0  0  0
 11 12  2  0  0  0  0
 11 61  1  0  0  0  0
 12 13  1  0  0  0  0
 12 14  1  0  0  0  0
 14 15  2  0  0  0  0
 14 62  1  0  0  0  0
 15 16  1  0  0  0  0
 17 18  2  0  0  0  0
 17 19  1  0  0  0  0
 19 20  1  0  0  0  0
 19 63  1  0  0  0  0
 20 21  2  0  0  0  0
 22 23  2  0  0  0  0
 22 27  1  0  0  0  0
 23 24  1  0  0  0  0
 23 64  1  0  0  0  0
 24 25  2  0  0  0  0
 24 65  1  0  0  0  0
 25 26  1  0  0  0  0
 25 66  1  0  0  0  0
 26 27  2  0  0  0  0
 26 67  1  0  0  0  0
 28 29  1  0  0  0  0
 28 68  1  0  0  0  0
 29 30  1  0  0  0  0
 29 69  1  0  0  0  0
 29 70  1  0  0  0  0
 30 31  1  0  0  0  0
 30 71  1  0  0  0  0
 30 72  1  0  0  0  0
 31 32  1  0  0  0  0
 32 33  1  0  0  0  0
 32 73  1  0  0  0  0
 32 74  1  0  0  0  0
 33 34  1  0  0  0  0
 33 75  1  0  0  0  0
 33 76  1  0  0  0  0
 34 35  1  0  0  0  0
 35 36  1  0  0  0  0
 35 77  1  0  0  0  0
 35 78  1  0  0  0  0
 36 37  1  0  0  0  0
 36 79  1  0  0  0  0
 36 80  1  0  0  0  0
 37 38  1  0  0  0  0
 37 81  1  0  0  0  0
 38 39  2  0  0  0  0
 38 43  1  0  0  0  0
 39 40  1  0  0  0  0
 39 82  1  0  0  0  0
 40 41  2  0  0  0  0
 40 83  1  0  0  0  0
 41 42  1  0  0  0  0
 41 84  1  0  0  0  0
 42 43  2  0  0  0  0
 42 55  1  0  0  0  0
 43 44  1  0  0  0  0
 44 45  2  0  0  0  0
 44 46  1  0  0  0  0
 46 47  1  0  0  0  0
 46 55  1  0  0  0  0
 47 48  1  0  0  0  0
 47 53  1  0  0  0  0
 47 85  1  0  0  0  0
 48 49  1  0  0  0  0
 48 86  1  0  0  0  0
 48 87  1  0  0  0  0
 49 50  1  0  0  0  0
 49 88  1  0  0  0  0
 49 89  1  0  0  0  0
 50 51  2  0  0  0  0
 50 52  1  0  0  0  0
 52 53  1  0  0  0  0
 52 90  1  0  0  0  0
 53 54  2  0  0  0  0
 55 56  2  0  0  0  0
M  END
$$$$
protac3895RUN2
  chem.cr 07102519423D
protac3895RUN2
 90 96  0  0  0  0  0  0  0  0999 V2000
    1.5247    1.2887    2.0039 O   0  0  0  0  0  0  0  0  0  0  0  0
    1.2115    0.9972    0.8581 C   0  0  0  0  0  0  0  0  0  0  0  0
    2.0564    1.3282   -0.3454 C   0  0  0  0  0  0  0  0  0  0  0  0
    2.9169    0.2272   -0.8215 N   0  0  0  0  0  0  0  0  0  0  0  0
    3.4937   -0.6730    0.0864 C   0  0  0  0  0  0  0  0  0  0  0  0
    4.7611   -0.9885   -0.2638 C   0  0  0  0  0  0  0  0  0  0  0  0
    5.6875   -1.6765    0.4838 C   0  0  0  0  0  0  0  0  0  0  0  0
    5.4752   -2.3001    1.6754 C   0  0  0  0  0  0  0  0  0  0  0  0
    4.2995   -2.3801    2.3981 C   0  0  0  0  0  0  0  0  0  0  0  0
    3.5633   -3.5813    2.3951 C   0  0  0  0  0  0  0  0  0  0  0  0
    2.3986   -3.7058    3.1736 C   0  0  0  0  0  0  0  0  0  0  0  0
    1.9571   -2.6204    3.9482 C   0  0  0  0  0  0  0  0  0  0  0  0
    0.4959   -2.7602    4.9169 Cl  0  0  0  0  0  0  0  0  0  0  0  0
    2.6899   -1.4222    3.9657 C   0  0  0  0  0  0  0  0  0  0  0  0
    3.8713   -1.3094    3.2154 C   0  0  0  0  0  0  0  0  0  0  0  0
    4.7801    0.2020    3.2846 Cl  0  0  0  0  0  0  0  0  0  0  0  0
    6.5927   -2.8456    2.1597 C   0  0  0  0  0  0  0  0  0  0  0  0
    6.8531   -3.4614    3.1858 O   0  0  0  0  0  0  0  0  0  0  0  0
    7.6117   -2.6123    1.2621 N   0  0  0  0  0  0  0  0  0  0  0  0
    7.0228   -1.8343    0.2677 C   0  0  0  0  0  0  0  0  0  0  0  0
    7.8241   -1.3885   -0.5383 O   0  0  0  0  0  0  0  0  0  0  0  0
    4.9421   -0.3837   -1.5253 C   0  0  0  0  0  0  0  0  0  0  0  0
    5.8940   -0.5712   -2.5535 C   0  0  0  0  0  0  0  0  0  0  0  0
    5.7895    0.1739   -3.7478 C   0  0  0  0  0  0  0  0  0  0  0  0
    4.7057    1.0484   -3.9621 C   0  0  0  0  0  0  0  0  0  0  0  0
    3.6849    1.1433   -3.0025 C   0  0  0  0  0  0  0  0  0  0  0  0
    3.8280    0.4076   -1.8200 C   0  0  0  0  0  0  0  0  0  0  0  0
    0.0839    0.1992    0.6252 N   0  0  0  0  0  0  0  0  0  0  0  0
   -0.7688   -0.3594    1.6833 C   0  0  0  0  0  0  0  0  0  0  0  0
   -0.8746   -1.8894    1.5448 C   0  0  0  0  0  0  0  0  0  0  0  0
   -1.2471   -2.1738    0.1908 O   0  0  0  0  0  0  0  0  0  0  0  0
   -1.5390   -3.5474   -0.0954 C   0  0  0  0  0  0  0  0  0  0  0  0
   -1.8055   -3.6854   -1.6147 C   0  0  0  0  0  0  0  0  0  0  0  0
   -3.1456   -3.2661   -1.9461 O   0  0  0  0  0  0  0  0  0  0  0  0
   -3.4380   -1.8778   -1.7442 C   0  0  0  0  0  0  0  0  0  0  0  0
   -4.7739   -1.5687   -2.4292 C   0  0  0  0  0  0  0  0  0  0  0  0
   -5.0852   -0.1481   -2.2164 N   0  0  0  0  0  0  0  0  0  0  0  0
   -5.6953    0.3221   -1.0628 C   0  0  0  0  0  0  0  0  0  0  0  0
   -6.8044   -0.3229   -0.4652 C   0  0  0  0  0  0  0  0  0  0  0  0
   -7.4089    0.2021    0.7029 C   0  0  0  0  0  0  0  0  0  0  0  0
   -6.9204    1.3860    1.2933 C   0  0  0  0  0  0  0  0  0  0  0  0
   -5.8284    2.0166    0.6866 C   0  0  0  0  0  0  0  0  0  0  0  0
   -5.2263    1.4943   -0.4547 C   0  0  0  0  0  0  0  0  0  0  0  0
   -4.1546    2.2933   -0.7824 C   0  0  0  0  0  0  0  0  0  0  0  0
   -3.1891    1.9714   -1.4640 O   0  0  0  0  0  0  0  0  0  0  0  0
   -4.1048    3.3577    0.1359 N   0  0  0  0  0  0  0  0  0  0  0  0
   -2.9671    4.2707    0.3899 C   0  0  0  0  0  0  0  0  0  0  0  0
   -2.7554    5.3111   -0.7372 C   0  0  0  0  0  0  0  0  0  0  0  0
   -1.8658    4.7658   -1.8815 C   0  0  0  0  0  0  0  0  0  0  0  0
   -0.6243    4.0540   -1.3832 C   0  0  0  0  0  0  0  0  0  0  0  0
    0.3865    3.9089   -2.0552 O   0  0  0  0  0  0  0  0  0  0  0  0
   -0.5601    3.6376   -0.0497 N   0  0  0  0  0  0  0  0  0  0  0  0
   -1.6969    3.5173    0.7587 C   0  0  0  0  0  0  0  0  0  0  0  0
   -1.5295    2.9951    1.8512 O   0  0  0  0  0  0  0  0  0  0  0  0
   -5.1511    3.1544    1.0477 C   0  0  0  0  0  0  0  0  0  0  0  0
   -5.4303    3.9576    1.9311 O   0  0  0  0  0  0  0  0  0  0  0  0
    1.4042    1.6402   -1.1690 H   0  0  0  0  0  0  0  0  0  0  0  0
    2.7016    2.1788   -0.0921 H   0  0  0  0  0  0  0  0  0  0  0  0
    2.9286   -0.9117    0.9780 H   0  0  0  0  0  0  0  0  0  0  0  0
    3.9164   -4.4245    1.8084 H   0  0  0  0  0  0  0  0  0  0  0  0
    1.8464   -4.6412    3.1825 H   0  0  0  0  0  0  0  0  0  0  0  0
    2.3536   -0.5866    4.5737 H   0  0  0  0  0  0  0  0  0  0  0  0
    8.5803   -2.5206    1.5276 H   0  0  0  0  0  0  0  0  0  0  0  0
    6.6803   -1.3072   -2.4945 H   0  0  0  0  0  0  0  0  0  0  0  0
    6.5407    0.0514   -4.5235 H   0  0  0  0  0  0  0  0  0  0  0  0
    4.6327    1.6088   -4.8897 H   0  0  0  0  0  0  0  0  0  0  0  0
    2.8041    1.7534   -3.1823 H   0  0  0  0  0  0  0  0  0  0  0  0
   -0.1132   -0.0876   -0.3268 H   0  0  0  0  0  0  0  0  0  0  0  0
   -1.7663    0.0963    1.6050 H   0  0  0  0  0  0  0  0  0  0  0  0
   -0.3684   -0.1065    2.6747 H   0  0  0  0  0  0  0  0  0  0  0  0
   -1.6196   -2.2791    2.2510 H   0  0  0  0  0  0  0  0  0  0  0  0
    0.1002   -2.3407    1.7742 H   0  0  0  0  0  0  0  0  0  0  0  0
   -2.4153   -3.8925    0.4690 H   0  0  0  0  0  0  0  0  0  0  0  0
   -0.6838   -4.1799    0.1737 H   0  0  0  0  0  0  0  0  0  0  0  0
   -1.6776   -4.7363   -1.8983 H   0  0  0  0  0  0  0  0  0  0  0  0
   -1.0629   -3.1007   -2.1761 H   0  0  0  0  0  0  0  0  0  0  0  0
   -3.5245   -1.6483   -0.6743 H   0  0  0  0  0  0  0  0  0  0  0  0
   -2.6477   -1.2446   -2.1692 H   0  0  0  0  0  0  0  0  0  0  0  0
   -4.6909   -1.7791   -3.5035 H   0  0  0  0  0  0  0  0  0  0  0  0
   -5.5573   -2.2148   -2.0154 H   0  0  0  0  0  0  0  0  0  0  0  0
   -4.4189    0.5074   -2.6124 H   0  0  0  0  0  0  0  0  0  0  0  0
   -7.2152   -1.2208   -0.9104 H   0  0  0  0  0  0  0  0  0  0  0  0
   -8.2599   -0.3081    1.1480 H   0  0  0  0  0  0  0  0  0  0  0  0
   -7.3700    1.7971    2.1947 H   0  0  0  0  0  0  0  0  0  0  0  0
   -3.2279    4.8456    1.2884 H   0  0  0  0  0  0  0  0  0  0  0  0
   -2.2632    6.1918   -0.3026 H   0  0  0  0  0  0  0  0  0  0  0  0
   -3.7248    5.6504   -1.1252 H   0  0  0  0  0  0  0  0  0  0  0  0
   -2.4396    4.0792   -2.5131 H   0  0  0  0  0  0  0  0  0  0  0  0
   -1.5629    5.5912   -2.5393 H   0  0  0  0  0  0  0  0  0  0  0  0
    0.3074    3.2674    0.3059 H   0  0  0  0  0  0  0  0  0  0  0  0
  1  2  2  0  0  0  0
  2  3  1  0  0  0  0
  2 28  1  0  0  0  0
  3  4  1  0  0  0  0
  3 57  1  0  0  0  0
  3 58  1  0  0  0  0
  4  5  1  0  0  0  0
  4 27  1  0  0  0  0
  5  6  2  0  0  0  0
  5 59  1  0  0  0  0
  6  7  1  0  0  0  0
  6 22  1  0  0  0  0
  7  8  2  0  0  0  0
  7 20  1  0  0  0  0
  8  9  1  0  0  0  0
  8 17  1  0  0  0  0
  9 10  2  0  0  0  0
  9 15  1  0  0  0  0
 10 11  1  0  0  0  0
 10 60  1  0  0  0  0
 11 12  2  0  0  0  0
 11 61  1  0  0  0  0
 12 13  1  0  0  0  0
 12 14  1  0  0  0  0
 14 15  2  0  0  0  0
 14 62  1  0  0  0  0
 15 16  1  0  0  0  0
 17 18  2  0  0  0  0
 17 19  1  0  0  0  0
 19 20  1  0  0  0  0
 19 63  1  0  0  0  0
 20 21  2  0  0  0  0
 22 23  2  0  0  0  0
 22 27  1  0  0  0  0
 23 24  1  0  0  0  0
 23 64  1  0  0  0  0
 24 25  2  0  0  0  0
 24 65  1  0  0  0  0
 25 26  1  0  0  0  0
 25 66  1  0  0  0  0
 26 27  2  0  0  0  0
 26 67  1  0  0  0  0
 28 29  1  0  0  0  0
 28 68  1  0  0  0  0
 29 30  1  0  0  0  0
 29 69  1  0  0  0  0
 29 70  1  0  0  0  0
 30 31  1  0  0  0  0
 30 71  1  0  0  0  0
 30 72  1  0  0  0  0
 31 32  1  0  0  0  0
 32 33  1  0  0  0  0
 32 73  1  0  0  0  0
 32 74  1  0  0  0  0
 33 34  1  0  0  0  0
 33 75  1  0  0  0  0
 33 76  1  0  0  0  0
 34 35  1  0  0  0  0
 35 36  1  0  0  0  0
 35 77  1  0  0  0  0
 35 78  1  0  0  0  0
 36 37  1  0  0  0  0
 36 79  1  0  0  0  0
 36 80  1  0  0  0  0
 37 38  1  0  0  0  0
 37 81  1  0  0  0  0
 38 39  2  0  0  0  0
 38 43  1  0  0  0  0
 39 40  1  0  0  0  0
 39 82  1  0  0  0  0
 40 41  2  0  0  0  0
 40 83  1  0  0  0  0
 41 42  1  0  0  0  0
 41 84  1  0  0  0  0
 42 43  2  0  0  0  0
 42 55  1  0  0  0  0
 43 44  1  0  0  0  0
 44 45  2  0  0  0  0
 44 46  1  0  0  0  0
 46 47  1  0  0  0  0
 46 55  1  0  0  0  0
 47 48  1  0  0  0  0
 47 53  1  0  0  0  0
 47 85  1  0  0  0  0
 48 49  1  0  0  0  0
 48 86  1  0  0  0  0
 48 87  1  0  0  0  0
 49 50  1  0  0  0  0
 49 88  1  0  0  0  0
 49 89  1  0  0  0  0
 50 51  2  0  0  0  0
 50 52  1  0  0  0  0
 52 53  1  0  0  0  0
 52 90  1  0  0  0  0
 53 54  2  0  0  0  0
 55 56  2  0  0  0  0
M  END
$$$$
protac3895RUN2
  chem.cr 07102519423D
protac3895RUN2
 90 96  0  0  0  0  0  0  0  0999 V2000
    4.0251    2.4670   -0.6504 O   0  0  0  0  0  0  0  0  0  0  0  0
    4.0348    1.3670   -0.1147 C   0  0  0  0  0  0  0  0  0  0  0  0
    4.2757    0.0851   -0.8763 C   0  0  0  0  0  0  0  0  0  0  0  0
    5.0890   -0.9312   -0.1773 N   0  0  0  0  0  0  0  0  0  0  0  0
    4.9892   -2.2682   -0.5933 C   0  0  0  0  0  0  0  0  0  0  0  0
    6.1982   -2.8755   -0.6004 C   0  0  0  0  0  0  0  0  0  0  0  0
    6.5165   -4.1004   -1.1320 C   0  0  0  0  0  0  0  0  0  0  0  0
    5.6461   -5.0361   -1.5896 C   0  0  0  0  0  0  0  0  0  0  0  0
    4.2673   -4.9750   -1.5677 C   0  0  0  0  0  0  0  0  0  0  0  0
    3.5658   -4.6937   -2.7564 C   0  0  0  0  0  0  0  0  0  0  0  0
    2.1606   -4.6527   -2.7579 C   0  0  0  0  0  0  0  0  0  0  0  0
    1.4516   -4.8874   -1.5686 C   0  0  0  0  0  0  0  0  0  0  0  0
   -0.3061   -4.8486   -1.5685 Cl  0  0  0  0  0  0  0  0  0  0  0  0
    2.1433   -5.1742   -0.3813 C   0  0  0  0  0  0  0  0  0  0  0  0
    3.5475   -5.2340   -0.3816 C   0  0  0  0  0  0  0  0  0  0  0  0
    4.3850   -5.6631    1.1092 Cl  0  0  0  0  0  0  0  0  0  0  0  0
    6.2713   -6.0964   -2.1024 C   0  0  0  0  0  0  0  0  0  0  0  0
    5.8794   -7.1264   -2.6343 O   0  0  0  0  0  0  0  0  0  0  0  0
    7.6304   -5.8979   -1.9672 N   0  0  0  0  0  0  0  0  0  0  0  0
    7.7422   -4.6271   -1.4053 C   0  0  0  0  0  0  0  0  0  0  0  0
    8.8859   -4.1992   -1.3629 O   0  0  0  0  0  0  0  0  0  0  0  0
    7.0742   -1.9364   -0.0262 C   0  0  0  0  0  0  0  0  0  0  0  0
    8.3641   -2.0673    0.5359 C   0  0  0  0  0  0  0  0  0  0  0  0
    8.9938   -0.9434    1.1123 C   0  0  0  0  0  0  0  0  0  0  0  0
    8.3238    0.2925    1.2010 C   0  0  0  0  0  0  0  0  0  0  0  0
    6.9960    0.4000    0.7573 C   0  0  0  0  0  0  0  0  0  0  0  0
    6.3992   -0.7278    0.1712 C   0  0  0  0  0  0  0  0  0  0  0  0
    3.6821    1.2622    1.2405 N   0  0  0  0  0  0  0  0  0  0  0  0
    3.1487    2.3953    2.0187 C   0  0  0  0  0  0  0  0  0  0  0  0
    1.9874    1.9840    2.9569 C   0  0  0  0  0  0  0  0  0  0  0  0
    1.0929    1.0536    2.3036 O   0  0  0  0  0  0  0  0  0  0  0  0
    0.4740    1.4503    1.0577 C   0  0  0  0  0  0  0  0  0  0  0  0
   -0.5709    2.5748    1.2602 C   0  0  0  0  0  0  0  0  0  0  0  0
   -1.8499    1.9708    1.4932 O   0  0  0  0  0  0  0  0  0  0  0  0
   -2.1532    1.6170    2.8497 C   0  0  0  0  0  0  0  0  0  0  0  0
   -3.3403    0.6287    2.8279 C   0  0  0  0  0  0  0  0  0  0  0  0
   -4.4128    1.0607    1.9107 N   0  0  0  0  0  0  0  0  0  0  0  0
   -5.3017    2.1122    2.1111 C   0  0  0  0  0  0  0  0  0  0  0  0
   -5.4007    2.8179    3.3339 C   0  0  0  0  0  0  0  0  0  0  0  0
   -6.3025    3.9015    3.4797 C   0  0  0  0  0  0  0  0  0  0  0  0
   -7.1237    4.3023    2.4057 C   0  0  0  0  0  0  0  0  0  0  0  0
   -7.0245    3.5886    1.2044 C   0  0  0  0  0  0  0  0  0  0  0  0
   -6.1406    2.5218    1.0615 C   0  0  0  0  0  0  0  0  0  0  0  0
   -6.2580    2.0328   -0.2222 C   0  0  0  0  0  0  0  0  0  0  0  0
   -5.9996    0.8891   -0.5782 O   0  0  0  0  0  0  0  0  0  0  0  0
   -7.2284    2.8014   -0.8958 N   0  0  0  0  0  0  0  0  0  0  0  0
   -7.4016    2.9098   -2.3682 C   0  0  0  0  0  0  0  0  0  0  0  0
   -8.8720    2.6650   -2.7784 C   0  0  0  0  0  0  0  0  0  0  0  0
   -9.2062    1.1662   -2.6204 C   0  0  0  0  0  0  0  0  0  0  0  0
   -8.2302    0.2881   -3.3737 C   0  0  0  0  0  0  0  0  0  0  0  0
   -8.5510   -0.7640   -3.9067 O   0  0  0  0  0  0  0  0  0  0  0  0
   -6.9368    0.7639   -3.6316 N   0  0  0  0  0  0  0  0  0  0  0  0
   -6.4721    2.0087   -3.1771 C   0  0  0  0  0  0  0  0  0  0  0  0
   -5.3860    2.3745   -3.6044 O   0  0  0  0  0  0  0  0  0  0  0  0
   -7.6894    3.7624    0.0147 C   0  0  0  0  0  0  0  0  0  0  0  0
   -8.3602    4.7277   -0.3341 O   0  0  0  0  0  0  0  0  0  0  0  0
    3.3010   -0.3465   -1.1296 H   0  0  0  0  0  0  0  0  0  0  0  0
    4.7868    0.3325   -1.8139 H   0  0  0  0  0  0  0  0  0  0  0  0
    4.0315   -2.6102   -0.9741 H   0  0  0  0  0  0  0  0  0  0  0  0
    4.1147   -4.5226   -3.6795 H   0  0  0  0  0  0  0  0  0  0  0  0
    1.6216   -4.4534   -3.6800 H   0  0  0  0  0  0  0  0  0  0  0  0
    1.5928   -5.3654    0.5346 H   0  0  0  0  0  0  0  0  0  0  0  0
    8.3247   -6.3038   -2.5741 H   0  0  0  0  0  0  0  0  0  0  0  0
    8.8720   -3.0180    0.5978 H   0  0  0  0  0  0  0  0  0  0  0  0
    9.9966   -1.0404    1.5192 H   0  0  0  0  0  0  0  0  0  0  0  0
    8.8135    1.1467    1.6605 H   0  0  0  0  0  0  0  0  0  0  0  0
    6.4519    1.3283    0.8952 H   0  0  0  0  0  0  0  0  0  0  0  0
    3.6618    0.3383    1.6557 H   0  0  0  0  0  0  0  0  0  0  0  0
    2.7853    3.1771    1.3376 H   0  0  0  0  0  0  0  0  0  0  0  0
    3.9647    2.8348    2.6078 H   0  0  0  0  0  0  0  0  0  0  0  0
    1.4519    2.8797    3.2943 H   0  0  0  0  0  0  0  0  0  0  0  0
    2.4117    1.5053    3.8496 H   0  0  0  0  0  0  0  0  0  0  0  0
   -0.0276    0.5861    0.6040 H   0  0  0  0  0  0  0  0  0  0  0  0
    1.2237    1.7897    0.3345 H   0  0  0  0  0  0  0  0  0  0  0  0
   -0.6174    3.1573    0.3324 H   0  0  0  0  0  0  0  0  0  0  0  0
   -0.2925    3.2622    2.0670 H   0  0  0  0  0  0  0  0  0  0  0  0
   -1.2940    1.1423    3.3408 H   0  0  0  0  0  0  0  0  0  0  0  0
   -2.4268    2.5132    3.4195 H   0  0  0  0  0  0  0  0  0  0  0  0
   -2.9619   -0.3467    2.4924 H   0  0  0  0  0  0  0  0  0  0  0  0
   -3.7303    0.4959    3.8434 H   0  0  0  0  0  0  0  0  0  0  0  0
   -4.4079    0.6742    0.9713 H   0  0  0  0  0  0  0  0  0  0  0  0
   -4.7806    2.5372    4.1774 H   0  0  0  0  0  0  0  0  0  0  0  0
   -6.3603    4.4315    4.4275 H   0  0  0  0  0  0  0  0  0  0  0  0
   -7.8145    5.1366    2.5020 H   0  0  0  0  0  0  0  0  0  0  0  0
   -7.1454    3.9442   -2.6378 H   0  0  0  0  0  0  0  0  0  0  0  0
   -9.0098    2.9615   -3.8279 H   0  0  0  0  0  0  0  0  0  0  0  0
   -9.5549    3.2833   -2.1809 H   0  0  0  0  0  0  0  0  0  0  0  0
   -9.1786    0.8900   -1.5591 H   0  0  0  0  0  0  0  0  0  0  0  0
  -10.2256    0.9663   -2.9730 H   0  0  0  0  0  0  0  0  0  0  0  0
   -6.3017    0.1714   -4.1443 H   0  0  0  0  0  0  0  0  0  0  0  0
  1  2  2  0  0  0  0
  2  3  1  0  0  0  0
  2 28  1  0  0  0  0
  3  4  1  0  0  0  0
  3 57  1  0  0  0  0
  3 58  1  0  0  0  0
  4  5  1  0  0  0  0
  4 27  1  0  0  0  0
  5  6  2  0  0  0  0
  5 59  1  0  0  0  0
  6  7  1  0  0  0  0
  6 22  1  0  0  0  0
  7  8  2  0  0  0  0
  7 20  1  0  0  0  0
  8  9  1  0  0  0  0
  8 17  1  0  0  0  0
  9 10  2  0  0  0  0
  9 15  1  0  0  0  0
 10 11  1  0  0  0  0
 10 60  1  0  0  0  0
 11 12  2  0  0  0  0
 11 61  1  0  0  0  0
 12 13  1  0  0  0  0
 12 14  1  0  0  0  0
 14 15  2  0  0  0  0
 14 62  1  0  0  0  0
 15 16  1  0  0  0  0
 17 18  2  0  0  0  0
 17 19  1  0  0  0  0
 19 20  1  0  0  0  0
 19 63  1  0  0  0  0
 20 21  2  0  0  0  0
 22 23  2  0  0  0  0
 22 27  1  0  0  0  0
 23 24  1  0  0  0  0
 23 64  1  0  0  0  0
 24 25  2  0  0  0  0
 24 65  1  0  0  0  0
 25 26  1  0  0  0  0
 25 66  1  0  0  0  0
 26 27  2  0  0  0  0
 26 67  1  0  0  0  0
 28 29  1  0  0  0  0
 28 68  1  0  0  0  0
 29 30  1  0  0  0  0
 29 69  1  0  0  0  0
 29 70  1  0  0  0  0
 30 31  1  0  0  0  0
 30 71  1  0  0  0  0
 30 72  1  0  0  0  0
 31 32  1  0  0  0  0
 32 33  1  0  0  0  0
 32 73  1  0  0  0  0
 32 74  1  0  0  0  0
 33 34  1  0  0  0  0
 33 75  1  0  0  0  0
 33 76  1  0  0  0  0
 34 35  1  0  0  0  0
 35 36  1  0  0  0  0
 35 77  1  0  0  0  0
 35 78  1  0  0  0  0
 36 37  1  0  0  0  0
 36 79  1  0  0  0  0
 36 80  1  0  0  0  0
 37 38  1  0  0  0  0
 37 81  1  0  0  0  0
 38 39  2  0  0  0  0
 38 43  1  0  0  0  0
 39 40  1  0  0  0  0
 39 82  1  0  0  0  0
 40 41  2  0  0  0  0
 40 83  1  0  0  0  0
 41 42  1  0  0  0  0
 41 84  1  0  0  0  0
 42 43  2  0  0  0  0
 42 55  1  0  0  0  0
 43 44  1  0  0  0  0
 44 45  2  0  0  0  0
 44 46  1  0  0  0  0
 46 47  1  0  0  0  0
 46 55  1  0  0  0  0
 47 48  1  0  0  0  0
 47 53  1  0  0  0  0
 47 85  1  0  0  0  0
 48 49  1  0  0  0  0
 48 86  1  0  0  0  0
 48 87  1  0  0  0  0
 49 50  1  0  0  0  0
 49 88  1  0  0  0  0
 49 89  1  0  0  0  0
 50 51  2  0  0  0  0
 50 52  1  0  0  0  0
 52 53  1  0  0  0  0
 52 90  1  0  0  0  0
 53 54  2  0  0  0  0
 55 56  2  0  0  0  0
M  END
$$$$
protac3895RUN2
  chem.cr 07102519423D
protac3895RUN2
 90 96  0  0  0  0  0  0  0  0999 V2000
    1.8069    2.9089   -3.3237 O   0  0  0  0  0  0  0  0  0  0  0  0
    2.1067    1.8069   -2.8850 C   0  0  0  0  0  0  0  0  0  0  0  0
    3.2898    1.0093   -3.3731 C   0  0  0  0  0  0  0  0  0  0  0  0
    4.3779    0.9341   -2.3827 N   0  0  0  0  0  0  0  0  0  0  0  0
    4.4610   -0.0290   -1.3807 C   0  0  0  0  0  0  0  0  0  0  0  0
    5.6559    0.0335   -0.7461 C   0  0  0  0  0  0  0  0  0  0  0  0
    6.1300   -0.8337    0.2107 C   0  0  0  0  0  0  0  0  0  0  0  0
    5.4262   -1.8322    0.8086 C   0  0  0  0  0  0  0  0  0  0  0  0
    4.1057   -2.1779    0.5858 C   0  0  0  0  0  0  0  0  0  0  0  0
    3.8164   -3.2799   -0.2437 C   0  0  0  0  0  0  0  0  0  0  0  0
    2.4835   -3.6511   -0.4973 C   0  0  0  0  0  0  0  0  0  0  0  0
    1.4314   -2.9261    0.0836 C   0  0  0  0  0  0  0  0  0  0  0  0
   -0.2379   -3.3854   -0.2311 Cl  0  0  0  0  0  0  0  0  0  0  0  0
    1.7092   -1.8424    0.9316 C   0  0  0  0  0  0  0  0  0  0  0  0
    3.0408   -1.4663    1.1836 C   0  0  0  0  0  0  0  0  0  0  0  0
    3.3535   -0.0992    2.2490 Cl  0  0  0  0  0  0  0  0  0  0  0  0
    6.1735   -2.5314    1.6623 C   0  0  0  0  0  0  0  0  0  0  0  0
    5.9566   -3.5129    2.3607 O   0  0  0  0  0  0  0  0  0  0  0  0
    7.4366   -1.9785    1.6791 N   0  0  0  0  0  0  0  0  0  0  0  0
    7.3837   -0.9628    0.7259 C   0  0  0  0  0  0  0  0  0  0  0  0
    8.4724   -0.4691    0.4726 O   0  0  0  0  0  0  0  0  0  0  0  0
    6.3117    1.1487   -1.3236 C   0  0  0  0  0  0  0  0  0  0  0  0
    7.4544    1.8939   -0.9488 C   0  0  0  0  0  0  0  0  0  0  0  0
    7.8445    3.0142   -1.7160 C   0  0  0  0  0  0  0  0  0  0  0  0
    7.0682    3.4565   -2.8050 C   0  0  0  0  0  0  0  0  0  0  0  0
    5.8680    2.7967   -3.1184 C   0  0  0  0  0  0  0  0  0  0  0  0
    5.5266    1.6658   -2.3635 C   0  0  0  0  0  0  0  0  0  0  0  0
    1.2293    1.1631   -1.9993 N   0  0  0  0  0  0  0  0  0  0  0  0
    0.1054    1.8542   -1.3537 C   0  0  0  0  0  0  0  0  0  0  0  0
   -0.7000    0.9078   -0.4393 C   0  0  0  0  0  0  0  0  0  0  0  0
   -1.1588   -0.2322   -1.1858 O   0  0  0  0  0  0  0  0  0  0  0  0
   -2.1544    0.0373   -2.1853 C   0  0  0  0  0  0  0  0  0  0  0  0
   -2.7125   -1.3164   -2.6674 C   0  0  0  0  0  0  0  0  0  0  0  0
   -3.6260   -1.1144   -3.7707 O   0  0  0  0  0  0  0  0  0  0  0  0
   -4.8169   -0.3210   -3.5649 C   0  0  0  0  0  0  0  0  0  0  0  0
   -5.7614   -1.0104   -2.5503 C   0  0  0  0  0  0  0  0  0  0  0  0
   -5.4965   -0.5453   -1.1753 N   0  0  0  0  0  0  0  0  0  0  0  0
   -5.0955   -1.3435   -0.1070 C   0  0  0  0  0  0  0  0  0  0  0  0
   -5.2890   -2.7462   -0.0648 C   0  0  0  0  0  0  0  0  0  0  0  0
   -4.8260   -3.5146    1.0321 C   0  0  0  0  0  0  0  0  0  0  0  0
   -4.1574   -2.8974    2.1084 C   0  0  0  0  0  0  0  0  0  0  0  0
   -3.9895   -1.5078    2.0652 C   0  0  0  0  0  0  0  0  0  0  0  0
   -4.4556   -0.7532    0.9922 C   0  0  0  0  0  0  0  0  0  0  0  0
   -4.1489    0.5635    1.2385 C   0  0  0  0  0  0  0  0  0  0  0  0
   -4.1153    1.4783    0.4237 O   0  0  0  0  0  0  0  0  0  0  0  0
   -3.4944    0.6489    2.4781 N   0  0  0  0  0  0  0  0  0  0  0  0
   -3.2751    1.9201    3.2276 C   0  0  0  0  0  0  0  0  0  0  0  0
   -3.2193    1.7772    4.7698 C   0  0  0  0  0  0  0  0  0  0  0  0
   -4.5878    1.3035    5.3277 C   0  0  0  0  0  0  0  0  0  0  0  0
   -5.7823    1.9624    4.6629 C   0  0  0  0  0  0  0  0  0  0  0  0
   -6.9239    1.8494    5.0838 O   0  0  0  0  0  0  0  0  0  0  0  0
   -5.5918    2.8184    3.5698 N   0  0  0  0  0  0  0  0  0  0  0  0
   -4.3543    2.9507    2.9254 C   0  0  0  0  0  0  0  0  0  0  0  0
   -4.1490    4.0016    2.3346 O   0  0  0  0  0  0  0  0  0  0  0  0
   -3.3814   -0.6657    2.9674 C   0  0  0  0  0  0  0  0  0  0  0  0
   -2.5144   -0.9828    3.7731 O   0  0  0  0  0  0  0  0  0  0  0  0
    2.9717   -0.0051   -3.6383 H   0  0  0  0  0  0  0  0  0  0  0  0
    3.6720    1.4788   -4.2866 H   0  0  0  0  0  0  0  0  0  0  0  0
    3.6400   -0.7290   -1.2879 H   0  0  0  0  0  0  0  0  0  0  0  0
    4.6302   -3.8490   -0.6877 H   0  0  0  0  0  0  0  0  0  0  0  0
    2.2668   -4.5020   -1.1378 H   0  0  0  0  0  0  0  0  0  0  0  0
    0.8916   -1.3025    1.4010 H   0  0  0  0  0  0  0  0  0  0  0  0
    8.2747   -2.4933    1.8992 H   0  0  0  0  0  0  0  0  0  0  0  0
    8.0220    1.6812   -0.0583 H   0  0  0  0  0  0  0  0  0  0  0  0
    8.7379    3.5667   -1.4395 H   0  0  0  0  0  0  0  0  0  0  0  0
    7.3720    4.3348   -3.3684 H   0  0  0  0  0  0  0  0  0  0  0  0
    5.2166    3.1731   -3.9012 H   0  0  0  0  0  0  0  0  0  0  0  0
    1.3651    0.1818   -1.7931 H   0  0  0  0  0  0  0  0  0  0  0  0
   -0.5483    2.2874   -2.1220 H   0  0  0  0  0  0  0  0  0  0  0  0
    0.5003    2.6859   -0.7547 H   0  0  0  0  0  0  0  0  0  0  0  0
   -1.5464    1.4505   -0.0010 H   0  0  0  0  0  0  0  0  0  0  0  0
   -0.0575    0.5799    0.3849 H   0  0  0  0  0  0  0  0  0  0  0  0
   -1.7227    0.5722   -3.0405 H   0  0  0  0  0  0  0  0  0  0  0  0
   -2.9629    0.6423   -1.7609 H   0  0  0  0  0  0  0  0  0  0  0  0
   -3.1961   -1.8429   -1.8377 H   0  0  0  0  0  0  0  0  0  0  0  0
   -1.8740   -1.9433   -2.9987 H   0  0  0  0  0  0  0  0  0  0  0  0
   -4.5776    0.7020   -3.2482 H   0  0  0  0  0  0  0  0  0  0  0  0
   -5.3444   -0.2367   -4.5238 H   0  0  0  0  0  0  0  0  0  0  0  0
   -6.7998   -0.7661   -2.8120 H   0  0  0  0  0  0  0  0  0  0  0  0
   -5.6464   -2.0957   -2.6483 H   0  0  0  0  0  0  0  0  0  0  0  0
   -5.3232    0.4475   -1.0491 H   0  0  0  0  0  0  0  0  0  0  0  0
   -5.8056   -3.2554   -0.8707 H   0  0  0  0  0  0  0  0  0  0  0  0
   -4.9877   -4.5894    1.0463 H   0  0  0  0  0  0  0  0  0  0  0  0
   -3.7915   -3.4774    2.9526 H   0  0  0  0  0  0  0  0  0  0  0  0
   -2.3208    2.3374    2.8799 H   0  0  0  0  0  0  0  0  0  0  0  0
   -2.9849    2.7635    5.1955 H   0  0  0  0  0  0  0  0  0  0  0  0
   -2.4069    1.1119    5.0883 H   0  0  0  0  0  0  0  0  0  0  0  0
   -4.6862    0.2187    5.2055 H   0  0  0  0  0  0  0  0  0  0  0  0
   -4.6319    1.4902    6.4077 H   0  0  0  0  0  0  0  0  0  0  0  0
   -6.3562    3.4076    3.2763 H   0  0  0  0  0  0  0  0  0  0  0  0
  1  2  2  0  0  0  0
  2  3  1  0  0  0  0
  2 28  1  0  0  0  0
  3  4  1  0  0  0  0
  3 57  1  0  0  0  0
  3 58  1  0  0  0  0
  4  5  1  0  0  0  0
  4 27  1  0  0  0  0
  5  6  2  0  0  0  0
  5 59  1  0  0  0  0
  6  7  1  0  0  0  0
  6 22  1  0  0  0  0
  7  8  2  0  0  0  0
  7 20  1  0  0  0  0
  8  9  1  0  0  0  0
  8 17  1  0  0  0  0
  9 10  2  0  0  0  0
  9 15  1  0  0  0  0
 10 11  1  0  0  0  0
 10 60  1  0  0  0  0
 11 12  2  0  0  0  0
 11 61  1  0  0  0  0
 12 13  1  0  0  0  0
 12 14  1  0  0  0  0
 14 15  2  0  0  0  0
 14 62  1  0  0  0  0
 15 16  1  0  0  0  0
 17 18  2  0  0  0  0
 17 19  1  0  0  0  0
 19 20  1  0  0  0  0
 19 63  1  0  0  0  0
 20 21  2  0  0  0  0
 22 23  2  0  0  0  0
 22 27  1  0  0  0  0
 23 24  1  0  0  0  0
 23 64  1  0  0  0  0
 24 25  2  0  0  0  0
 24 65  1  0  0  0  0
 25 26  1  0  0  0  0
 25 66  1  0  0  0  0
 26 27  2  0  0  0  0
 26 67  1  0  0  0  0
 28 29  1  0  0  0  0
 28 68  1  0  0  0  0
 29 30  1  0  0  0  0
 29 69  1  0  0  0  0
 29 70  1  0  0  0  0
 30 31  1  0  0  0  0
 30 71  1  0  0  0  0
 30 72  1  0  0  0  0
 31 32  1  0  0  0  0
 32 33  1  0  0  0  0
 32 73  1  0  0  0  0
 32 74  1  0  0  0  0
 33 34  1  0  0  0  0
 33 75  1  0  0  0  0
 33 76  1  0  0  0  0
 34 35  1  0  0  0  0
 35 36  1  0  0  0  0
 35 77  1  0  0  0  0
 35 78  1  0  0  0  0
 36 37  1  0  0  0  0
 36 79  1  0  0  0  0
 36 80  1  0  0  0  0
 37 38  1  0  0  0  0
 37 81  1  0  0  0  0
 38 39  2  0  0  0  0
 38 43  1  0  0  0  0
 39 40  1  0  0  0  0
 39 82  1  0  0  0  0
 40 41  2  0  0  0  0
 40 83  1  0  0  0  0
 41 42  1  0  0  0  0
 41 84  1  0  0  0  0
 42 43  2  0  0  0  0
 42 55  1  0  0  0  0
 43 44  1  0  0  0  0
 44 45  2  0  0  0  0
 44 46  1  0  0  0  0
 46 47  1  0  0  0  0
 46 55  1  0  0  0  0
 47 48  1  0  0  0  0
 47 53  1  0  0  0  0
 47 85  1  0  0  0  0
 48 49  1  0  0  0  0
 48 86  1  0  0  0  0
 48 87  1  0  0  0  0
 49 50  1  0  0  0  0
 49 88  1  0  0  0  0
 49 89  1  0  0  0  0
 50 51  2  0  0  0  0
 50 52  1  0  0  0  0
 52 53  1  0  0  0  0
 52 90  1  0  0  0  0
 53 54  2  0  0  0  0
 55 56  2  0  0  0  0
M  END
$$$$
protac3895RUN2
  chem.cr 07102519423D
protac3895RUN2
 90 96  0  0  0  0  0  0  0  0999 V2000
    1.9392    0.9741   -6.1594 O   0  0  0  0  0  0  0  0  0  0  0  0
    2.4393    0.4758   -5.1623 C   0  0  0  0  0  0  0  0  0  0  0  0
    3.9270    0.3357   -4.9525 C   0  0  0  0  0  0  0  0  0  0  0  0
    4.4793    1.3335   -4.0200 N   0  0  0  0  0  0  0  0  0  0  0  0
    4.8948    0.9638   -2.7395 C   0  0  0  0  0  0  0  0  0  0  0  0
    5.9501    1.7057   -2.3379 C   0  0  0  0  0  0  0  0  0  0  0  0
    6.7238    1.5122   -1.2201 C   0  0  0  0  0  0  0  0  0  0  0  0
    6.4454    0.6735   -0.1910 C   0  0  0  0  0  0  0  0  0  0  0  0
    5.3060   -0.0896   -0.0328 C   0  0  0  0  0  0  0  0  0  0  0  0
    5.3310   -1.4576   -0.3643 C   0  0  0  0  0  0  0  0  0  0  0  0
    4.1658   -2.2365   -0.2515 C   0  0  0  0  0  0  0  0  0  0  0  0
    2.9760   -1.6544    0.2155 C   0  0  0  0  0  0  0  0  0  0  0  0
    1.5196   -2.6275    0.3639 Cl  0  0  0  0  0  0  0  0  0  0  0  0
    2.9518   -0.2989    0.5804 C   0  0  0  0  0  0  0  0  0  0  0  0
    4.1091    0.4850    0.4514 C   0  0  0  0  0  0  0  0  0  0  0  0
    4.0436    2.1882    0.9020 Cl  0  0  0  0  0  0  0  0  0  0  0  0
    7.4193    0.6611    0.7199 C   0  0  0  0  0  0  0  0  0  0  0  0
    7.5894    0.0443    1.7624 O   0  0  0  0  0  0  0  0  0  0  0  0
    8.3912    1.5543    0.3157 N   0  0  0  0  0  0  0  0  0  0  0  0
    7.9407    2.0291   -0.9147 C   0  0  0  0  0  0  0  0  0  0  0  0
    8.7515    2.7193   -1.5173 O   0  0  0  0  0  0  0  0  0  0  0  0
    6.1250    2.6684   -3.3522 C   0  0  0  0  0  0  0  0  0  0  0  0
    6.8185    3.8990   -3.3793 C   0  0  0  0  0  0  0  0  0  0  0  0
    6.7110    4.7324   -4.5164 C   0  0  0  0  0  0  0  0  0  0  0  0
    5.8680    4.3864   -5.5945 C   0  0  0  0  0  0  0  0  0  0  0  0
    5.0947    3.2149   -5.5282 C   0  0  0  0  0  0  0  0  0  0  0  0
    5.2422    2.3975   -4.4019 C   0  0  0  0  0  0  0  0  0  0  0  0
    1.6243    0.3237   -4.0359 N   0  0  0  0  0  0  0  0  0  0  0  0
    1.1345    1.5084   -3.3227 C   0  0  0  0  0  0  0  0  0  0  0  0
    0.5006    1.1515   -1.9584 C   0  0  0  0  0  0  0  0  0  0  0  0
   -0.5516    0.1784   -2.1216 O   0  0  0  0  0  0  0  0  0  0  0  0
   -1.6558    0.5777   -2.9516 C   0  0  0  0  0  0  0  0  0  0  0  0
   -2.8286   -0.4048   -2.7507 C   0  0  0  0  0  0  0  0  0  0  0  0
   -3.6264    0.0658   -1.6522 O   0  0  0  0  0  0  0  0  0  0  0  0
   -3.3381   -0.4805   -0.3576 C   0  0  0  0  0  0  0  0  0  0  0  0
   -4.0945   -1.8180   -0.2452 C   0  0  0  0  0  0  0  0  0  0  0  0
   -4.1636   -2.2393    1.1596 N   0  0  0  0  0  0  0  0  0  0  0  0
   -5.2349   -2.9376    1.7015 C   0  0  0  0  0  0  0  0  0  0  0  0
   -6.0795   -3.7697    0.9295 C   0  0  0  0  0  0  0  0  0  0  0  0
   -7.1962   -4.4195    1.5147 C   0  0  0  0  0  0  0  0  0  0  0  0
   -7.4872   -4.2505    2.8855 C   0  0  0  0  0  0  0  0  0  0  0  0
   -6.6266   -3.4463    3.6419 C   0  0  0  0  0  0  0  0  0  0  0  0
   -5.5288   -2.8108    3.0645 C   0  0  0  0  0  0  0  0  0  0  0  0
   -4.9128   -2.0585    4.0369 C   0  0  0  0  0  0  0  0  0  0  0  0
   -3.9959   -1.2588    3.8918 O   0  0  0  0  0  0  0  0  0  0  0  0
   -5.6498   -2.1828    5.2260 N   0  0  0  0  0  0  0  0  0  0  0  0
   -5.6164   -1.2817    6.4014 C   0  0  0  0  0  0  0  0  0  0  0  0
   -6.5757   -0.0838    6.2128 C   0  0  0  0  0  0  0  0  0  0  0  0
   -5.9497    0.9710    5.2724 C   0  0  0  0  0  0  0  0  0  0  0  0
   -4.5515    1.3622    5.7006 C   0  0  0  0  0  0  0  0  0  0  0  0
   -4.0716    2.4666    5.4916 O   0  0  0  0  0  0  0  0  0  0  0  0
   -3.7988    0.4809    6.4867 N   0  0  0  0  0  0  0  0  0  0  0  0
   -4.2137   -0.8263    6.7864 C   0  0  0  0  0  0  0  0  0  0  0  0
   -3.4985   -1.4535    7.5558 O   0  0  0  0  0  0  0  0  0  0  0  0
   -6.6847   -3.0905    4.9696 C   0  0  0  0  0  0  0  0  0  0  0  0
   -7.6108   -3.2602    5.7539 O   0  0  0  0  0  0  0  0  0  0  0  0
    4.1427   -0.6683   -4.5744 H   0  0  0  0  0  0  0  0  0  0  0  0
    4.4331    0.4385   -5.9199 H   0  0  0  0  0  0  0  0  0  0  0  0
    4.4255    0.0957   -2.2914 H   0  0  0  0  0  0  0  0  0  0  0  0
    6.2528   -1.9072   -0.7246 H   0  0  0  0  0  0  0  0  0  0  0  0
    4.1884   -3.2906   -0.5144 H   0  0  0  0  0  0  0  0  0  0  0  0
    2.0367    0.1457    0.9614 H   0  0  0  0  0  0  0  0  0  0  0  0
    9.3617    1.4987    0.5807 H   0  0  0  0  0  0  0  0  0  0  0  0
    7.3793    4.2632   -2.5309 H   0  0  0  0  0  0  0  0  0  0  0  0
    7.2518    5.6746   -4.5406 H   0  0  0  0  0  0  0  0  0  0  0  0
    5.7717    5.0558   -6.4460 H   0  0  0  0  0  0  0  0  0  0  0  0
    4.3734    2.9750   -6.3029 H   0  0  0  0  0  0  0  0  0  0  0  0
    1.0330   -0.4976   -4.0008 H   0  0  0  0  0  0  0  0  0  0  0  0
    0.4023    2.0245   -3.9557 H   0  0  0  0  0  0  0  0  0  0  0  0
    1.9688    2.2055   -3.1671 H   0  0  0  0  0  0  0  0  0  0  0  0
    0.1108    2.0621   -1.4853 H   0  0  0  0  0  0  0  0  0  0  0  0
    1.2826    0.7481   -1.3044 H   0  0  0  0  0  0  0  0  0  0  0  0
   -1.3626    0.5613   -4.0096 H   0  0  0  0  0  0  0  0  0  0  0  0
   -1.9906    1.5942   -2.7036 H   0  0  0  0  0  0  0  0  0  0  0  0
   -2.4606   -1.4258   -2.5866 H   0  0  0  0  0  0  0  0  0  0  0  0
   -3.4384   -0.4043   -3.6618 H   0  0  0  0  0  0  0  0  0  0  0  0
   -2.2599   -0.6224   -0.2037 H   0  0  0  0  0  0  0  0  0  0  0  0
   -3.7033    0.2076    0.4165 H   0  0  0  0  0  0  0  0  0  0  0  0
   -5.1098   -1.6713   -0.6382 H   0  0  0  0  0  0  0  0  0  0  0  0
   -3.5958   -2.5869   -0.8479 H   0  0  0  0  0  0  0  0  0  0  0  0
   -3.6263   -1.6995    1.8319 H   0  0  0  0  0  0  0  0  0  0  0  0
   -5.8783   -3.9128   -0.1276 H   0  0  0  0  0  0  0  0  0  0  0  0
   -7.8420   -5.0448    0.9010 H   0  0  0  0  0  0  0  0  0  0  0  0
   -8.3496   -4.7262    3.3447 H   0  0  0  0  0  0  0  0  0  0  0  0
   -5.9863   -1.8703    7.2517 H   0  0  0  0  0  0  0  0  0  0  0  0
   -6.7656    0.3751    7.1918 H   0  0  0  0  0  0  0  0  0  0  0  0
   -7.5453   -0.4240    5.8248 H   0  0  0  0  0  0  0  0  0  0  0  0
   -5.9103    0.5878    4.2457 H   0  0  0  0  0  0  0  0  0  0  0  0
   -6.5816    1.8673    5.2424 H   0  0  0  0  0  0  0  0  0  0  0  0
   -2.8804    0.7703    6.7852 H   0  0  0  0  0  0  0  0  0  0  0  0
  1  2  2  0  0  0  0
  2  3  1  0  0  0  0
  2 28  1  0  0  0  0
  3  4  1  0  0  0  0
  3 57  1  0  0  0  0
  3 58  1  0  0  0  0
  4  5  1  0  0  0  0
  4 27  1  0  0  0  0
  5  6  2  0  0  0  0
  5 59  1  0  0  0  0
  6  7  1  0  0  0  0
  6 22  1  0  0  0  0
  7  8  2  0  0  0  0
  7 20  1  0  0  0  0
  8  9  1  0  0  0  0
  8 17  1  0  0  0  0
  9 10  2  0  0  0  0
  9 15  1  0  0  0  0
 10 11  1  0  0  0  0
 10 60  1  0  0  0  0
 11 12  2  0  0  0  0
 11 61  1  0  0  0  0
 12 13  1  0  0  0  0
 12 14  1  0  0  0  0
 14 15  2  0  0  0  0
 14 62  1  0  0  0  0
 15 16  1  0  0  0  0
 17 18  2  0  0  0  0
 17 19  1  0  0  0  0
 19 20  1  0  0  0  0
 19 63  1  0  0  0  0
 20 21  2  0  0  0  0
 22 23  2  0  0  0  0
 22 27  1  0  0  0  0
 23 24  1  0  0  0  0
 23 64  1  0  0  0  0
 24 25  2  0  0  0  0
 24 65  1  0  0  0  0
 25 26  1  0  0  0  0
 25 66  1  0  0  0  0
 26 27  2  0  0  0  0
 26 67  1  0  0  0  0
 28 29  1  0  0  0  0
 28 68  1  0  0  0  0
 29 30  1  0  0  0  0
 29 69  1  0  0  0  0
 29 70  1  0  0  0  0
 30 31  1  0  0  0  0
 30 71  1  0  0  0  0
 30 72  1  0  0  0  0
 31 32  1  0  0  0  0
 32 33  1  0  0  0  0
 32 73  1  0  0  0  0
 32 74  1  0  0  0  0
 33 34  1  0  0  0  0
 33 75  1  0  0  0  0
 33 76  1  0  0  0  0
 34 35  1  0  0  0  0
 35 36  1  0  0  0  0
 35 77  1  0  0  0  0
 35 78  1  0  0  0  0
 36 37  1  0  0  0  0
 36 79  1  0  0  0  0
 36 80  1  0  0  0  0
 37 38  1  0  0  0  0
 37 81  1  0  0  0  0
 38 39  2  0  0  0  0
 38 43  1  0  0  0  0
 39 40  1  0  0  0  0
 39 82  1  0  0  0  0
 40 41  2  0  0  0  0
 40 83  1  0  0  0  0
 41 42  1  0  0  0  0
 41 84  1  0  0  0  0
 42 43  2  0  0  0  0
 42 55  1  0  0  0  0
 43 44  1  0  0  0  0
 44 45  2  0  0  0  0
 44 46  1  0  0  0  0
 46 47  1  0  0  0  0
 46 55  1  0  0  0  0
 47 48  1  0  0  0  0
 47 53  1  0  0  0  0
 47 85  1  0  0  0  0
 48 49  1  0  0  0  0
 48 86  1  0  0  0  0
 48 87  1  0  0  0  0
 49 50  1  0  0  0  0
 49 88  1  0  0  0  0
 49 89  1  0  0  0  0
 50 51  2  0  0  0  0
 50 52  1  0  0  0  0
 52 53  1  0  0  0  0
 52 90  1  0  0  0  0
 53 54  2  0  0  0  0
 55 56  2  0  0  0  0
M  END
$$$$
protac3895RUN2
  chem.cr 07102519423D
protac3895RUN2
 90 96  0  0  0  0  0  0  0  0999 V2000
    3.8125    5.4273    1.0130 O   0  0  0  0  0  0  0  0  0  0  0  0
    2.7733    4.7926    1.1216 C   0  0  0  0  0  0  0  0  0  0  0  0
    1.4013    5.4101    0.9463 C   0  0  0  0  0  0  0  0  0  0  0  0
    0.2688    4.4710    1.0982 N   0  0  0  0  0  0  0  0  0  0  0  0
   -0.0890    3.8844    2.3115 C   0  0  0  0  0  0  0  0  0  0  0  0
   -1.2859    3.2679    2.2023 C   0  0  0  0  0  0  0  0  0  0  0  0
   -2.0036    2.6876    3.2104 C   0  0  0  0  0  0  0  0  0  0  0  0
   -1.5202    2.3265    4.4282 C   0  0  0  0  0  0  0  0  0  0  0  0
   -0.1950    2.3580    4.8369 C   0  0  0  0  0  0  0  0  0  0  0  0
    0.1926    3.1930    5.9040 C   0  0  0  0  0  0  0  0  0  0  0  0
    1.5336    3.2316    6.3294 C   0  0  0  0  0  0  0  0  0  0  0  0
    2.4967    2.4315    5.6952 C   0  0  0  0  0  0  0  0  0  0  0  0
    4.1712    2.4724    6.2279 Cl  0  0  0  0  0  0  0  0  0  0  0  0
    2.1207    1.5821    4.6460 C   0  0  0  0  0  0  0  0  0  0  0  0
    0.7827    1.5381    4.2223 C   0  0  0  0  0  0  0  0  0  0  0  0
    0.3557    0.4236    2.9312 Cl  0  0  0  0  0  0  0  0  0  0  0  0
   -2.4749    1.8158    5.2047 C   0  0  0  0  0  0  0  0  0  0  0  0
   -2.4800    1.3372    6.3308 O   0  0  0  0  0  0  0  0  0  0  0  0
   -3.6609    1.8552    4.4980 N   0  0  0  0  0  0  0  0  0  0  0  0
   -3.3244    2.3777    3.2530 C   0  0  0  0  0  0  0  0  0  0  0  0
   -4.2730    2.5540    2.5010 O   0  0  0  0  0  0  0  0  0  0  0  0
   -1.6568    3.4063    0.8494 C   0  0  0  0  0  0  0  0  0  0  0  0
   -2.6424    2.7603    0.0740 C   0  0  0  0  0  0  0  0  0  0  0  0
   -2.7268    3.0323   -1.3084 C   0  0  0  0  0  0  0  0  0  0  0  0
   -1.7929    3.8785   -1.9398 C   0  0  0  0  0  0  0  0  0  0  0  0
   -0.7376    4.4358   -1.1968 C   0  0  0  0  0  0  0  0  0  0  0  0
   -0.6986    4.1764    0.1800 C   0  0  0  0  0  0  0  0  0  0  0  0
    2.8433    3.3981    1.2223 N   0  0  0  0  0  0  0  0  0  0  0  0
    4.0046    2.6247    0.7708 C   0  0  0  0  0  0  0  0  0  0  0  0
    3.7417    1.1071    0.8908 C   0  0  0  0  0  0  0  0  0  0  0  0
    2.3976    0.8183    0.4667 O   0  0  0  0  0  0  0  0  0  0  0  0
    2.1200    0.9654   -0.9372 C   0  0  0  0  0  0  0  0  0  0  0  0
    1.5699   -0.3821   -1.4226 C   0  0  0  0  0  0  0  0  0  0  0  0
    2.6409   -1.3406   -1.3371 O   0  0  0  0  0  0  0  0  0  0  0  0
    2.2256   -2.7075   -1.2378 C   0  0  0  0  0  0  0  0  0  0  0  0
    1.7749   -2.9732    0.2218 C   0  0  0  0  0  0  0  0  0  0  0  0
    0.5602   -3.7996    0.2250 N   0  0  0  0  0  0  0  0  0  0  0  0
   -0.6700   -3.2115   -0.0236 C   0  0  0  0  0  0  0  0  0  0  0  0
   -1.1584   -2.1308    0.7395 C   0  0  0  0  0  0  0  0  0  0  0  0
   -2.3737   -1.4867    0.4015 C   0  0  0  0  0  0  0  0  0  0  0  0
   -3.1196   -1.9145   -0.7187 C   0  0  0  0  0  0  0  0  0  0  0  0
   -2.6259   -2.9985   -1.4590 C   0  0  0  0  0  0  0  0  0  0  0  0
   -1.4421   -3.6377   -1.1052 C   0  0  0  0  0  0  0  0  0  0  0  0
   -1.1753   -4.5912   -2.0538 C   0  0  0  0  0  0  0  0  0  0  0  0
   -0.2138   -5.3493   -2.1108 O   0  0  0  0  0  0  0  0  0  0  0  0
   -2.1546   -4.5323   -3.0576 N   0  0  0  0  0  0  0  0  0  0  0  0
   -1.8167   -4.6918   -4.4887 C   0  0  0  0  0  0  0  0  0  0  0  0
   -1.5969   -6.1818   -4.8438 C   0  0  0  0  0  0  0  0  0  0  0  0
   -1.0904   -6.3069   -6.2959 C   0  0  0  0  0  0  0  0  0  0  0  0
    0.1512   -5.4741   -6.5184 C   0  0  0  0  0  0  0  0  0  0  0  0
    0.9875   -5.7285   -7.3723 O   0  0  0  0  0  0  0  0  0  0  0  0
    0.2328   -4.2198   -5.9058 N   0  0  0  0  0  0  0  0  0  0  0  0
   -0.6290   -3.8112   -4.8794 C   0  0  0  0  0  0  0  0  0  0  0  0
   -0.4671   -2.6660   -4.4764 O   0  0  0  0  0  0  0  0  0  0  0  0
   -3.0826   -3.5663   -2.6280 C   0  0  0  0  0  0  0  0  0  0  0  0
   -4.0147   -3.1933   -3.3329 O   0  0  0  0  0  0  0  0  0  0  0  0
    1.2852    6.2174    1.6780 H   0  0  0  0  0  0  0  0  0  0  0  0
    1.3618    5.8735   -0.0433 H   0  0  0  0  0  0  0  0  0  0  0  0
    0.5357    4.0658    3.1822 H   0  0  0  0  0  0  0  0  0  0  0  0
   -0.5523    3.8019    6.4091 H   0  0  0  0  0  0  0  0  0  0  0  0
    1.8258    3.8755    7.1540 H   0  0  0  0  0  0  0  0  0  0  0  0
    2.8618    0.9491    4.1669 H   0  0  0  0  0  0  0  0  0  0  0  0
   -4.5025    1.3470    4.7181 H   0  0  0  0  0  0  0  0  0  0  0  0
   -3.3122    2.0197    0.4872 H   0  0  0  0  0  0  0  0  0  0  0  0
   -3.5087    2.5623   -1.8982 H   0  0  0  0  0  0  0  0  0  0  0  0
   -1.8646    4.0599   -3.0101 H   0  0  0  0  0  0  0  0  0  0  0  0
    0.0311    5.0223   -1.6873 H   0  0  0  0  0  0  0  0  0  0  0  0
    1.9646    2.8943    1.2970 H   0  0  0  0  0  0  0  0  0  0  0  0
    4.8816    2.8991    1.3733 H   0  0  0  0  0  0  0  0  0  0  0  0
    4.2176    2.8886   -0.2738 H   0  0  0  0  0  0  0  0  0  0  0  0
    3.8627    0.8101    1.9399 H   0  0  0  0  0  0  0  0  0  0  0  0
    4.4746    0.5429    0.2960 H   0  0  0  0  0  0  0  0  0  0  0  0
    3.0166    1.2230   -1.5151 H   0  0  0  0  0  0  0  0  0  0  0  0
    1.3658    1.7478   -1.0952 H   0  0  0  0  0  0  0  0  0  0  0  0
    1.2145   -0.2958   -2.4579 H   0  0  0  0  0  0  0  0  0  0  0  0
    0.7143   -0.6618   -0.7945 H   0  0  0  0  0  0  0  0  0  0  0  0
    1.4075   -2.9021   -1.9472 H   0  0  0  0  0  0  0  0  0  0  0  0
    3.0523   -3.3823   -1.4925 H   0  0  0  0  0  0  0  0  0  0  0  0
    2.5817   -3.4867    0.7585 H   0  0  0  0  0  0  0  0  0  0  0  0
    1.5957   -2.0238    0.7430 H   0  0  0  0  0  0  0  0  0  0  0  0
    0.6610   -4.6982   -0.2367 H   0  0  0  0  0  0  0  0  0  0  0  0
   -0.5901   -1.7854    1.5941 H   0  0  0  0  0  0  0  0  0  0  0  0
   -2.7213   -0.6444    0.9959 H   0  0  0  0  0  0  0  0  0  0  0  0
   -4.0383   -1.4136   -1.0116 H   0  0  0  0  0  0  0  0  0  0  0  0
   -2.6702   -4.3350   -5.0804 H   0  0  0  0  0  0  0  0  0  0  0  0
   -2.5287   -6.7446   -4.7012 H   0  0  0  0  0  0  0  0  0  0  0  0
   -0.8514   -6.6254   -4.1697 H   0  0  0  0  0  0  0  0  0  0  0  0
   -0.8697   -7.3555   -6.5300 H   0  0  0  0  0  0  0  0  0  0  0  0
   -1.8649   -5.9803   -7.0007 H   0  0  0  0  0  0  0  0  0  0  0  0
    0.9959   -3.6100   -6.1587 H   0  0  0  0  0  0  0  0  0  0  0  0
  1  2  2  0  0  0  0
  2  3  1  0  0  0  0
  2 28  1  0  0  0  0
  3  4  1  0  0  0  0
  3 57  1  0  0  0  0
  3 58  1  0  0  0  0
  4  5  1  0  0  0  0
  4 27  1  0  0  0  0
  5  6  2  0  0  0  0
  5 59  1  0  0  0  0
  6  7  1  0  0  0  0
  6 22  1  0  0  0  0
  7  8  2  0  0  0  0
  7 20  1  0  0  0  0
  8  9  1  0  0  0  0
  8 17  1  0  0  0  0
  9 10  2  0  0  0  0
  9 15  1  0  0  0  0
 10 11  1  0  0  0  0
 10 60  1  0  0  0  0
 11 12  2  0  0  0  0
 11 61  1  0  0  0  0
 12 13  1  0  0  0  0
 12 14  1  0  0  0  0
 14 15  2  0  0  0  0
 14 62  1  0  0  0  0
 15 16  1  0  0  0  0
 17 18  2  0  0  0  0
 17 19  1  0  0  0  0
 19 20  1  0  0  0  0
 19 63  1  0  0  0  0
 20 21  2  0  0  0  0
 22 23  2  0  0  0  0
 22 27  1  0  0  0  0
 23 24  1  0  0  0  0
 23 64  1  0  0  0  0
 24 25  2  0  0  0  0
 24 65  1  0  0  0  0
 25 26  1  0  0  0  0
 25 66  1  0  0  0  0
 26 27  2  0  0  0  0
 26 67  1  0  0  0  0
 28 29  1  0  0  0  0
 28 68  1  0  0  0  0
 29 30  1  0  0  0  0
 29 69  1  0  0  0  0
 29 70  1  0  0  0  0
 30 31  1  0  0  0  0
 30 71  1  0  0  0  0
 30 72  1  0  0  0  0
 31 32  1  0  0  0  0
 32 33  1  0  0  0  0
 32 73  1  0  0  0  0
 32 74  1  0  0  0  0
 33 34  1  0  0  0  0
 33 75  1  0  0  0  0
 33 76  1  0  0  0  0
 34 35  1  0  0  0  0
 35 36  1  0  0  0  0
 35 77  1  0  0  0  0
 35 78  1  0  0  0  0
 36 37  1  0  0  0  0
 36 79  1  0  0  0  0
 36 80  1  0  0  0  0
 37 38  1  0  0  0  0
 37 81  1  0  0  0  0
 38 39  2  0  0  0  0
 38 43  1  0  0  0  0
 39 40  1  0  0  0  0
 39 82  1  0  0  0  0
 40 41  2  0  0  0  0
 40 83  1  0  0  0  0
 41 42  1  0  0  0  0
 41 84  1  0  0  0  0
 42 43  2  0  0  0  0
 42 55  1  0  0  0  0
 43 44  1  0  0  0  0
 44 45  2  0  0  0  0
 44 46  1  0  0  0  0
 46 47  1  0  0  0  0
 46 55  1  0  0  0  0
 47 48  1  0  0  0  0
 47 53  1  0  0  0  0
 47 85  1  0  0  0  0
 48 49  1  0  0  0  0
 48 86  1  0  0  0  0
 48 87  1  0  0  0  0
 49 50  1  0  0  0  0
 49 88  1  0  0  0  0
 49 89  1  0  0  0  0
 50 51  2  0  0  0  0
 50 52  1  0  0  0  0
 52 53  1  0  0  0  0
 52 90  1  0  0  0  0
 53 54  2  0  0  0  0
 55 56  2  0  0  0  0
M  END
$$$$
protac3895RUN2
  chem.cr 07102519423D
protac3895RUN2
 90 96  0  0  0  0  0  0  0  0999 V2000
   -1.7406    4.6837    0.7291 O   0  0  0  0  0  0  0  0  0  0  0  0
   -1.9414    3.6349    1.3234 C   0  0  0  0  0  0  0  0  0  0  0  0
   -2.3253    3.5812    2.7846 C   0  0  0  0  0  0  0  0  0  0  0  0
   -1.9793    2.3230    3.4768 N   0  0  0  0  0  0  0  0  0  0  0  0
   -0.7238    2.0691    4.0256 C   0  0  0  0  0  0  0  0  0  0  0  0
   -0.6074    0.7640    4.3669 C   0  0  0  0  0  0  0  0  0  0  0  0
    0.3814    0.1759    5.1124 C   0  0  0  0  0  0  0  0  0  0  0  0
    1.5400    0.7579    5.5180 C   0  0  0  0  0  0  0  0  0  0  0  0
    1.9640    2.0390    5.2323 C   0  0  0  0  0  0  0  0  0  0  0  0
    1.6475    3.0867    6.1186 C   0  0  0  0  0  0  0  0  0  0  0  0
    2.0514    4.4037    5.8325 C   0  0  0  0  0  0  0  0  0  0  0  0
    2.7727    4.6766    4.6571 C   0  0  0  0  0  0  0  0  0  0  0  0
    3.2804    6.3227    4.2945 Cl  0  0  0  0  0  0  0  0  0  0  0  0
    3.1099    3.6325    3.7796 C   0  0  0  0  0  0  0  0  0  0  0  0
    2.7215    2.3144    4.0731 C   0  0  0  0  0  0  0  0  0  0  0  0
    3.2147    1.0212    2.9836 Cl  0  0  0  0  0  0  0  0  0  0  0  0
    2.2730   -0.0589    6.2706 C   0  0  0  0  0  0  0  0  0  0  0  0
    3.3448    0.0649    6.8489 O   0  0  0  0  0  0  0  0  0  0  0  0
    1.6057   -1.2634    6.3732 N   0  0  0  0  0  0  0  0  0  0  0  0
    0.4137   -1.0584    5.6776 C   0  0  0  0  0  0  0  0  0  0  0  0
   -0.3943   -1.9698    5.7929 O   0  0  0  0  0  0  0  0  0  0  0  0
   -1.7726    0.1512    3.8526 C   0  0  0  0  0  0  0  0  0  0  0  0
   -2.0921   -1.1950    3.5658 C   0  0  0  0  0  0  0  0  0  0  0  0
   -3.3298   -1.5034    2.9589 C   0  0  0  0  0  0  0  0  0  0  0  0
   -4.2258   -0.4834    2.5756 C   0  0  0  0  0  0  0  0  0  0  0  0
   -3.8632    0.8629    2.7448 C   0  0  0  0  0  0  0  0  0  0  0  0
   -2.6360    1.1352    3.3615 C   0  0  0  0  0  0  0  0  0  0  0  0
   -2.0002    2.4346    0.5979 N   0  0  0  0  0  0  0  0  0  0  0  0
   -1.8025    2.3466   -0.8576 C   0  0  0  0  0  0  0  0  0  0  0  0
   -0.3273    2.1283   -1.2561 C   0  0  0  0  0  0  0  0  0  0  0  0
    0.0772    0.8390   -0.7765 O   0  0  0  0  0  0  0  0  0  0  0  0
    0.7551    0.8100    0.4902 C   0  0  0  0  0  0  0  0  0  0  0  0
    0.4781   -0.5634    1.1219 C   0  0  0  0  0  0  0  0  0  0  0  0
    1.1443   -1.5431    0.3208 O   0  0  0  0  0  0  0  0  0  0  0  0
    0.8673   -2.9048    0.6577 C   0  0  0  0  0  0  0  0  0  0  0  0
    1.5595   -3.7761   -0.4053 C   0  0  0  0  0  0  0  0  0  0  0  0
    1.0338   -3.4668   -1.7440 N   0  0  0  0  0  0  0  0  0  0  0  0
    1.6570   -3.7967   -2.9443 C   0  0  0  0  0  0  0  0  0  0  0  0
    2.8097   -4.6200   -3.0085 C   0  0  0  0  0  0  0  0  0  0  0  0
    3.4353   -4.9070   -4.2475 C   0  0  0  0  0  0  0  0  0  0  0  0
    2.9204   -4.3840   -5.4509 C   0  0  0  0  0  0  0  0  0  0  0  0
    1.7695   -3.5905   -5.3771 C   0  0  0  0  0  0  0  0  0  0  0  0
    1.1525   -3.3036   -4.1572 C   0  0  0  0  0  0  0  0  0  0  0  0
    0.0745   -2.4825   -4.4085 C   0  0  0  0  0  0  0  0  0  0  0  0
   -0.5635   -1.8126   -3.6029 O   0  0  0  0  0  0  0  0  0  0  0  0
    0.0389   -2.2250   -5.7851 N   0  0  0  0  0  0  0  0  0  0  0  0
   -0.7342   -1.1658   -6.4602 C   0  0  0  0  0  0  0  0  0  0  0  0
   -0.1649    0.2236   -6.1095 C   0  0  0  0  0  0  0  0  0  0  0  0
   -0.9320    1.2969   -6.9099 C   0  0  0  0  0  0  0  0  0  0  0  0
   -2.4269    1.1820   -6.7107 C   0  0  0  0  0  0  0  0  0  0  0  0
   -3.2003    2.1025   -6.9266 O   0  0  0  0  0  0  0  0  0  0  0  0
   -2.9922   -0.0824   -6.4963 N   0  0  0  0  0  0  0  0  0  0  0  0
   -2.2337   -1.2247   -6.1982 C   0  0  0  0  0  0  0  0  0  0  0  0
   -2.8669   -2.2673   -6.1018 O   0  0  0  0  0  0  0  0  0  0  0  0
    1.0822   -2.9455   -6.3773 C   0  0  0  0  0  0  0  0  0  0  0  0
    1.4701   -2.7095   -7.5150 O   0  0  0  0  0  0  0  0  0  0  0  0
   -1.8341    4.4135    3.3008 H   0  0  0  0  0  0  0  0  0  0  0  0
   -3.4058    3.7425    2.8680 H   0  0  0  0  0  0  0  0  0  0  0  0
   -0.0768    2.9165    4.2100 H   0  0  0  0  0  0  0  0  0  0  0  0
    1.0844    2.8761    7.0252 H   0  0  0  0  0  0  0  0  0  0  0  0
    1.8075    5.2110    6.5184 H   0  0  0  0  0  0  0  0  0  0  0  0
    3.6901    3.8439    2.8857 H   0  0  0  0  0  0  0  0  0  0  0  0
    1.6947   -1.8974    7.1517 H   0  0  0  0  0  0  0  0  0  0  0  0
   -1.4011   -2.0079    3.7379 H   0  0  0  0  0  0  0  0  0  0  0  0
   -3.5852   -2.5396    2.7592 H   0  0  0  0  0  0  0  0  0  0  0  0
   -5.1709   -0.7379    2.1055 H   0  0  0  0  0  0  0  0  0  0  0  0
   -4.5083    1.6583    2.3850 H   0  0  0  0  0  0  0  0  0  0  0  0
   -2.0689    1.5706    1.1277 H   0  0  0  0  0  0  0  0  0  0  0  0
   -2.1777    3.2632   -1.3322 H   0  0  0  0  0  0  0  0  0  0  0  0
   -2.3937    1.5050   -1.2448 H   0  0  0  0  0  0  0  0  0  0  0  0
    0.3066    2.9306   -0.8536 H   0  0  0  0  0  0  0  0  0  0  0  0
   -0.2508    2.1529   -2.3500 H   0  0  0  0  0  0  0  0  0  0  0  0
    0.3977    1.5973    1.1668 H   0  0  0  0  0  0  0  0  0  0  0  0
    1.8362    0.9453    0.3473 H   0  0  0  0  0  0  0  0  0  0  0  0
   -0.6071   -0.7361    1.1412 H   0  0  0  0  0  0  0  0  0  0  0  0
    0.8589   -0.5804    2.1502 H   0  0  0  0  0  0  0  0  0  0  0  0
    1.2619   -3.1463    1.6524 H   0  0  0  0  0  0  0  0  0  0  0  0
   -0.2136   -3.0989    0.6521 H   0  0  0  0  0  0  0  0  0  0  0  0
    2.6361   -3.5736   -0.3658 H   0  0  0  0  0  0  0  0  0  0  0  0
    1.3931   -4.8359   -0.1768 H   0  0  0  0  0  0  0  0  0  0  0  0
    0.2942   -2.7721   -1.8101 H   0  0  0  0  0  0  0  0  0  0  0  0
    3.2363   -5.0337   -2.0996 H   0  0  0  0  0  0  0  0  0  0  0  0
    4.3251   -5.5301   -4.2700 H   0  0  0  0  0  0  0  0  0  0  0  0
    3.3982   -4.5881   -6.4051 H   0  0  0  0  0  0  0  0  0  0  0  0
   -0.6185   -1.3199   -7.5380 H   0  0  0  0  0  0  0  0  0  0  0  0
    0.9094    0.2599   -6.3289 H   0  0  0  0  0  0  0  0  0  0  0  0
   -0.2823    0.4085   -5.0328 H   0  0  0  0  0  0  0  0  0  0  0  0
   -0.5986    2.3016   -6.6173 H   0  0  0  0  0  0  0  0  0  0  0  0
   -0.7106    1.1962   -7.9783 H   0  0  0  0  0  0  0  0  0  0  0  0
   -3.9972   -0.1625   -6.4776 H   0  0  0  0  0  0  0  0  0  0  0  0
  1  2  2  0  0  0  0
  2  3  1  0  0  0  0
  2 28  1  0  0  0  0
  3  4  1  0  0  0  0
  3 57  1  0  0  0  0
  3 58  1  0  0  0  0
  4  5  1  0  0  0  0
  4 27  1  0  0  0  0
  5  6  2  0  0  0  0
  5 59  1  0  0  0  0
  6  7  1  0  0  0  0
  6 22  1  0  0  0  0
  7  8  2  0  0  0  0
  7 20  1  0  0  0  0
  8  9  1  0  0  0  0
  8 17  1  0  0  0  0
  9 10  2  0  0  0  0
  9 15  1  0  0  0  0
 10 11  1  0  0  0  0
 10 60  1  0  0  0  0
 11 12  2  0  0  0  0
 11 61  1  0  0  0  0
 12 13  1  0  0  0  0
 12 14  1  0  0  0  0
 14 15  2  0  0  0  0
 14 62  1  0  0  0  0
 15 16  1  0  0  0  0
 17 18  2  0  0  0  0
 17 19  1  0  0  0  0
 19 20  1  0  0  0  0
 19 63  1  0  0  0  0
 20 21  2  0  0  0  0
 22 23  2  0  0  0  0
 22 27  1  0  0  0  0
 23 24  1  0  0  0  0
 23 64  1  0  0  0  0
 24 25  2  0  0  0  0
 24 65  1  0  0  0  0
 25 26  1  0  0  0  0
 25 66  1  0  0  0  0
 26 27  2  0  0  0  0
 26 67  1  0  0  0  0
 28 29  1  0  0  0  0
 28 68  1  0  0  0  0
 29 30  1  0  0  0  0
 29 69  1  0  0  0  0
 29 70  1  0  0  0  0
 30 31  1  0  0  0  0
 30 71  1  0  0  0  0
 30 72  1  0  0  0  0
 31 32  1  0  0  0  0
 32 33  1  0  0  0  0
 32 73  1  0  0  0  0
 32 74  1  0  0  0  0
 33 34  1  0  0  0  0
 33 75  1  0  0  0  0
 33 76  1  0  0  0  0
 34 35  1  0  0  0  0
 35 36  1  0  0  0  0
 35 77  1  0  0  0  0
 35 78  1  0  0  0  0
 36 37  1  0  0  0  0
 36 79  1  0  0  0  0
 36 80  1  0  0  0  0
 37 38  1  0  0  0  0
 37 81  1  0  0  0  0
 38 39  2  0  0  0  0
 38 43  1  0  0  0  0
 39 40  1  0  0  0  0
 39 82  1  0  0  0  0
 40 41  2  0  0  0  0
 40 83  1  0  0  0  0
 41 42  1  0  0  0  0
 41 84  1  0  0  0  0
 42 43  2  0  0  0  0
 42 55  1  0  0  0  0
 43 44  1  0  0  0  0
 44 45  2  0  0  0  0
 44 46  1  0  0  0  0
 46 47  1  0  0  0  0
 46 55  1  0  0  0  0
 47 48  1  0  0  0  0
 47 53  1  0  0  0  0
 47 85  1  0  0  0  0
 48 49  1  0  0  0  0
 48 86  1  0  0  0  0
 48 87  1  0  0  0  0
 49 50  1  0  0  0  0
 49 88  1  0  0  0  0
 49 89  1  0  0  0  0
 50 51  2  0  0  0  0
 50 52  1  0  0  0  0
 52 53  1  0  0  0  0
 52 90  1  0  0  0  0
 53 54  2  0  0  0  0
 55 56  2  0  0  0  0
M  END
$$$$
protac3895RUN2
  chem.cr 07102519423D
protac3895RUN2
 90 96  0  0  0  0  0  0  0  0999 V2000
    2.3322   -0.9704   -0.6242 O   0  0  0  0  0  0  0  0  0  0  0  0
    2.9337   -0.9690    0.4406 C   0  0  0  0  0  0  0  0  0  0  0  0
    4.3492   -1.4643    0.5767 C   0  0  0  0  0  0  0  0  0  0  0  0
    5.2519   -0.4931    1.2122 N   0  0  0  0  0  0  0  0  0  0  0  0
    5.3626   -0.3286    2.5877 C   0  0  0  0  0  0  0  0  0  0  0  0
    6.2095    0.6836    2.8768 C   0  0  0  0  0  0  0  0  0  0  0  0
    6.6584    1.0494    4.1148 C   0  0  0  0  0  0  0  0  0  0  0  0
    6.1219    0.6641    5.2966 C   0  0  0  0  0  0  0  0  0  0  0  0
    4.9620   -0.0720    5.4628 C   0  0  0  0  0  0  0  0  0  0  0  0
    5.0367   -1.4176    5.8697 C   0  0  0  0  0  0  0  0  0  0  0  0
    3.8673   -2.1923    5.9768 C   0  0  0  0  0  0  0  0  0  0  0  0
    2.6164   -1.6189    5.6950 C   0  0  0  0  0  0  0  0  0  0  0  0
    1.1535   -2.5847    5.8340 Cl  0  0  0  0  0  0  0  0  0  0  0  0
    2.5296   -0.2714    5.3119 C   0  0  0  0  0  0  0  0  0  0  0  0
    3.6971    0.5007    5.1918 C   0  0  0  0  0  0  0  0  0  0  0  0
    3.5516    2.1840    4.6832 Cl  0  0  0  0  0  0  0  0  0  0  0  0
    6.8128    1.1385    6.3333 C   0  0  0  0  0  0  0  0  0  0  0  0
    6.6864    1.0345    7.5455 O   0  0  0  0  0  0  0  0  0  0  0  0
    7.8519    1.9052    5.8373 N   0  0  0  0  0  0  0  0  0  0  0  0
    7.7376    1.8016    4.4512 C   0  0  0  0  0  0  0  0  0  0  0  0
    8.6620    2.2938    3.8214 O   0  0  0  0  0  0  0  0  0  0  0  0
    6.5619    1.2390    1.6316 C   0  0  0  0  0  0  0  0  0  0  0  0
    7.1620    2.4703    1.2896 C   0  0  0  0  0  0  0  0  0  0  0  0
    7.2731    2.8329   -0.0707 C   0  0  0  0  0  0  0  0  0  0  0  0
    6.7367    2.0150   -1.0883 C   0  0  0  0  0  0  0  0  0  0  0  0
    6.0497    0.8350   -0.7510 C   0  0  0  0  0  0  0  0  0  0  0  0
    5.9765    0.4897    0.6044 C   0  0  0  0  0  0  0  0  0  0  0  0
    2.2576   -0.6185    1.6233 N   0  0  0  0  0  0  0  0  0  0  0  0
    0.8428   -0.2180    1.6347 C   0  0  0  0  0  0  0  0  0  0  0  0
    0.6914    1.2772    1.3034 C   0  0  0  0  0  0  0  0  0  0  0  0
   -0.6840    1.5725    1.0002 O   0  0  0  0  0  0  0  0  0  0  0  0
   -1.1030    1.3949   -0.3710 C   0  0  0  0  0  0  0  0  0  0  0  0
   -1.9543    0.1065   -0.5132 C   0  0  0  0  0  0  0  0  0  0  0  0
   -1.1282   -1.0055   -0.9134 O   0  0  0  0  0  0  0  0  0  0  0  0
   -0.6479   -1.0100   -2.2706 C   0  0  0  0  0  0  0  0  0  0  0  0
   -1.4920   -1.9987   -3.1031 C   0  0  0  0  0  0  0  0  0  0  0  0
   -2.8996   -1.5775   -3.2026 N   0  0  0  0  0  0  0  0  0  0  0  0
   -3.9348   -1.9462   -2.3492 C   0  0  0  0  0  0  0  0  0  0  0  0
   -3.7834   -2.8576   -1.2776 C   0  0  0  0  0  0  0  0  0  0  0  0
   -4.8854   -3.2145   -0.4609 C   0  0  0  0  0  0  0  0  0  0  0  0
   -6.1629   -2.6612   -0.6911 C   0  0  0  0  0  0  0  0  0  0  0  0
   -6.2944   -1.7376   -1.7340 C   0  0  0  0  0  0  0  0  0  0  0  0
   -5.2071   -1.3922   -2.5397 C   0  0  0  0  0  0  0  0  0  0  0  0
   -5.6412   -0.4830   -3.4758 C   0  0  0  0  0  0  0  0  0  0  0  0
   -5.0592   -0.1068   -4.4880 O   0  0  0  0  0  0  0  0  0  0  0  0
   -7.0146   -0.2897   -3.2881 N   0  0  0  0  0  0  0  0  0  0  0  0
   -7.8873    0.5914   -4.0871 C   0  0  0  0  0  0  0  0  0  0  0  0
   -8.1552   -0.0524   -5.4655 C   0  0  0  0  0  0  0  0  0  0  0  0
   -8.9134    0.9326   -6.3765 C   0  0  0  0  0  0  0  0  0  0  0  0
   -8.1729    2.2436   -6.4981 C   0  0  0  0  0  0  0  0  0  0  0  0
   -8.2498    2.9705   -7.4766 O   0  0  0  0  0  0  0  0  0  0  0  0
   -7.5511    2.7632   -5.3566 N   0  0  0  0  0  0  0  0  0  0  0  0
   -7.3280    2.0090   -4.1939 C   0  0  0  0  0  0  0  0  0  0  0  0
   -6.9003    2.6367   -3.2345 O   0  0  0  0  0  0  0  0  0  0  0  0
   -7.4017   -1.0492   -2.1792 C   0  0  0  0  0  0  0  0  0  0  0  0
   -8.5802   -1.2590   -1.9128 O   0  0  0  0  0  0  0  0  0  0  0  0
    4.3524   -2.3929    1.1565 H   0  0  0  0  0  0  0  0  0  0  0  0
    4.7342   -1.7025   -0.4206 H   0  0  0  0  0  0  0  0  0  0  0  0
    4.8785   -1.0542    3.2314 H   0  0  0  0  0  0  0  0  0  0  0  0
    6.0055   -1.8607    6.0858 H   0  0  0  0  0  0  0  0  0  0  0  0
    3.9310   -3.2337    6.2813 H   0  0  0  0  0  0  0  0  0  0  0  0
    1.5597    0.1780    5.1153 H   0  0  0  0  0  0  0  0  0  0  0  0
    8.7250    2.0596    6.3174 H   0  0  0  0  0  0  0  0  0  0  0  0
    7.4897    3.1792    2.0371 H   0  0  0  0  0  0  0  0  0  0  0  0
    7.7476    3.7739   -0.3351 H   0  0  0  0  0  0  0  0  0  0  0  0
    6.8097    2.3231   -2.1285 H   0  0  0  0  0  0  0  0  0  0  0  0
    5.5643    0.2357   -1.5150 H   0  0  0  0  0  0  0  0  0  0  0  0
    2.8107   -0.4571    2.4550 H   0  0  0  0  0  0  0  0  0  0  0  0
    0.4041   -0.4194    2.6201 H   0  0  0  0  0  0  0  0  0  0  0  0
    0.3004   -0.8285    0.9078 H   0  0  0  0  0  0  0  0  0  0  0  0
    1.3426    1.5457    0.4600 H   0  0  0  0  0  0  0  0  0  0  0  0
    1.0198    1.8651    2.1697 H   0  0  0  0  0  0  0  0  0  0  0  0
   -0.2471    1.3821   -1.0575 H   0  0  0  0  0  0  0  0  0  0  0  0
   -1.7336    2.2449   -0.6602 H   0  0  0  0  0  0  0  0  0  0  0  0
   -2.7480    0.2807   -1.2497 H   0  0  0  0  0  0  0  0  0  0  0  0
   -2.4419   -0.1077    0.4462 H   0  0  0  0  0  0  0  0  0  0  0  0
   -0.6864   -0.0112   -2.7256 H   0  0  0  0  0  0  0  0  0  0  0  0
    0.3966   -1.3445   -2.2894 H   0  0  0  0  0  0  0  0  0  0  0  0
   -1.0666   -2.0506   -4.1145 H   0  0  0  0  0  0  0  0  0  0  0  0
   -1.4086   -3.0047   -2.6742 H   0  0  0  0  0  0  0  0  0  0  0  0
   -3.1564   -0.9353   -3.9459 H   0  0  0  0  0  0  0  0  0  0  0  0
   -2.8133   -3.2904   -1.0620 H   0  0  0  0  0  0  0  0  0  0  0  0
   -4.7471   -3.9236    0.3507 H   0  0  0  0  0  0  0  0  0  0  0  0
   -7.0189   -2.9318   -0.0765 H   0  0  0  0  0  0  0  0  0  0  0  0
   -8.8442    0.6853   -3.5593 H   0  0  0  0  0  0  0  0  0  0  0  0
   -8.7203   -0.9852   -5.3417 H   0  0  0  0  0  0  0  0  0  0  0  0
   -7.1992   -0.3151   -5.9403 H   0  0  0  0  0  0  0  0  0  0  0  0
   -9.0420    0.4948   -7.3752 H   0  0  0  0  0  0  0  0  0  0  0  0
   -9.9179    1.1257   -5.9800 H   0  0  0  0  0  0  0  0  0  0  0  0
   -7.1853    3.7037   -5.3937 H   0  0  0  0  0  0  0  0  0  0  0  0
  1  2  2  0  0  0  0
  2  3  1  0  0  0  0
  2 28  1  0  0  0  0
  3  4  1  0  0  0  0
  3 57  1  0  0  0  0
  3 58  1  0  0  0  0
  4  5  1  0  0  0  0
  4 27  1  0  0  0  0
  5  6  2  0  0  0  0
  5 59  1  0  0  0  0
  6  7  1  0  0  0  0
  6 22  1  0  0  0  0
  7  8  2  0  0  0  0
  7 20  1  0  0  0  0
  8  9  1  0  0  0  0
  8 17  1  0  0  0  0
  9 10  2  0  0  0  0
  9 15  1  0  0  0  0
 10 11  1  0  0  0  0
 10 60  1  0  0  0  0
 11 12  2  0  0  0  0
 11 61  1  0  0  0  0
 12 13  1  0  0  0  0
 12 14  1  0  0  0  0
 14 15  2  0  0  0  0
 14 62  1  0  0  0  0
 15 16  1  0  0  0  0
 17 18  2  0  0  0  0
 17 19  1  0  0  0  0
 19 20  1  0  0  0  0
 19 63  1  0  0  0  0
 20 21  2  0  0  0  0
 22 23  2  0  0  0  0
 22 27  1  0  0  0  0
 23 24  1  0  0  0  0
 23 64  1  0  0  0  0
 24 25  2  0  0  0  0
 24 65  1  0  0  0  0
 25 26  1  0  0  0  0
 25 66  1  0  0  0  0
 26 27  2  0  0  0  0
 26 67  1  0  0  0  0
 28 29  1  0  0  0  0
 28 68  1  0  0  0  0
 29 30  1  0  0  0  0
 29 69  1  0  0  0  0
 29 70  1  0  0  0  0
 30 31  1  0  0  0  0
 30 71  1  0  0  0  0
 30 72  1  0  0  0  0
 31 32  1  0  0  0  0
 32 33  1  0  0  0  0
 32 73  1  0  0  0  0
 32 74  1  0  0  0  0
 33 34  1  0  0  0  0
 33 75  1  0  0  0  0
 33 76  1  0  0  0  0
 34 35  1  0  0  0  0
 35 36  1  0  0  0  0
 35 77  1  0  0  0  0
 35 78  1  0  0  0  0
 36 37  1  0  0  0  0
 36 79  1  0  0  0  0
 36 80  1  0  0  0  0
 37 38  1  0  0  0  0
 37 81  1  0  0  0  0
 38 39  2  0  0  0  0
 38 43  1  0  0  0  0
 39 40  1  0  0  0  0
 39 82  1  0  0  0  0
 40 41  2  0  0  0  0
 40 83  1  0  0  0  0
 41 42  1  0  0  0  0
 41 84  1  0  0  0  0
 42 43  2  0  0  0  0
 42 55  1  0  0  0  0
 43 44  1  0  0  0  0
 44 45  2  0  0  0  0
 44 46  1  0  0  0  0
 46 47  1  0  0  0  0
 46 55  1  0  0  0  0
 47 48  1  0  0  0  0
 47 53  1  0  0  0  0
 47 85  1  0  0  0  0
 48 49  1  0  0  0  0
 48 86  1  0  0  0  0
 48 87  1  0  0  0  0
 49 50  1  0  0  0  0
 49 88  1  0  0  0  0
 49 89  1  0  0  0  0
 50 51  2  0  0  0  0
 50 52  1  0  0  0  0
 52 53  1  0  0  0  0
 52 90  1  0  0  0  0
 53 54  2  0  0  0  0
 55 56  2  0  0  0  0
M  END
$$$$
protac3895RUN2
  chem.cr 07102519423D
protac3895RUN2
 90 96  0  0  0  0  0  0  0  0999 V2000
    2.5879   -2.2180   -1.6733 O   0  0  0  0  0  0  0  0  0  0  0  0
    2.6273   -0.9964   -1.6253 C   0  0  0  0  0  0  0  0  0  0  0  0
    3.8378   -0.1803   -2.0223 C   0  0  0  0  0  0  0  0  0  0  0  0
    4.2353    0.8458   -1.0333 N   0  0  0  0  0  0  0  0  0  0  0  0
    5.0495    0.5000    0.0467 C   0  0  0  0  0  0  0  0  0  0  0  0
    4.7558    1.2257    1.1515 C   0  0  0  0  0  0  0  0  0  0  0  0
    5.2766    1.0564    2.4148 C   0  0  0  0  0  0  0  0  0  0  0  0
    6.2888    0.2202    2.7618 C   0  0  0  0  0  0  0  0  0  0  0  0
    6.9891   -0.6359    1.9341 C   0  0  0  0  0  0  0  0  0  0  0  0
    8.1854   -0.2032    1.3311 C   0  0  0  0  0  0  0  0  0  0  0  0
    8.9008   -1.0625    0.4775 C   0  0  0  0  0  0  0  0  0  0  0  0
    8.4251   -2.3597    0.2278 C   0  0  0  0  0  0  0  0  0  0  0  0
    9.3110   -3.4287   -0.8529 Cl  0  0  0  0  0  0  0  0  0  0  0  0
    7.2425   -2.8061    0.8399 C   0  0  0  0  0  0  0  0  0  0  0  0
    6.5287   -1.9514    1.6977 C   0  0  0  0  0  0  0  0  0  0  0  0
    5.0326   -2.5331    2.4310 Cl  0  0  0  0  0  0  0  0  0  0  0  0
    6.5580    0.2621    4.0668 C   0  0  0  0  0  0  0  0  0  0  0  0
    7.3561   -0.3270    4.7812 O   0  0  0  0  0  0  0  0  0  0  0  0
    5.7066    1.1782    4.6478 N   0  0  0  0  0  0  0  0  0  0  0  0
    4.8898    1.6038    3.6017 C   0  0  0  0  0  0  0  0  0  0  0  0
    3.9607    2.3046    3.9644 O   0  0  0  0  0  0  0  0  0  0  0  0
    3.7677    2.1423    0.7205 C   0  0  0  0  0  0  0  0  0  0  0  0
    3.2057    3.3024    1.3031 C   0  0  0  0  0  0  0  0  0  0  0  0
    2.2225    4.0340    0.6007 C   0  0  0  0  0  0  0  0  0  0  0  0
    1.8562    3.6834   -0.7138 C   0  0  0  0  0  0  0  0  0  0  0  0
    2.5079    2.6175   -1.3547 C   0  0  0  0  0  0  0  0  0  0  0  0
    3.4365    1.8728   -0.6142 C   0  0  0  0  0  0  0  0  0  0  0  0
    1.4321   -0.2757   -1.5206 N   0  0  0  0  0  0  0  0  0  0  0  0
    0.0845   -0.8435   -1.3951 C   0  0  0  0  0  0  0  0  0  0  0  0
   -0.9476   -0.0122   -2.1952 C   0  0  0  0  0  0  0  0  0  0  0  0
   -0.5382    1.3721   -2.1780 O   0  0  0  0  0  0  0  0  0  0  0  0
   -1.4338    2.3165   -2.7878 C   0  0  0  0  0  0  0  0  0  0  0  0
   -2.5507    2.6631   -1.7856 C   0  0  0  0  0  0  0  0  0  0  0  0
   -1.9419    3.3910   -0.7030 O   0  0  0  0  0  0  0  0  0  0  0  0
   -2.7787    3.6956    0.4257 C   0  0  0  0  0  0  0  0  0  0  0  0
   -2.6760    2.5593    1.4715 C   0  0  0  0  0  0  0  0  0  0  0  0
   -3.3872    1.3471    1.0377 N   0  0  0  0  0  0  0  0  0  0  0  0
   -3.6680    0.2343    1.8210 C   0  0  0  0  0  0  0  0  0  0  0  0
   -3.3818    0.1679    3.2049 C   0  0  0  0  0  0  0  0  0  0  0  0
   -3.7057   -0.9867    3.9617 C   0  0  0  0  0  0  0  0  0  0  0  0
   -4.3142   -2.1025    3.3487 C   0  0  0  0  0  0  0  0  0  0  0  0
   -4.5881   -2.0238    1.9783 C   0  0  0  0  0  0  0  0  0  0  0  0
   -4.2759   -0.8866    1.2365 C   0  0  0  0  0  0  0  0  0  0  0  0
   -4.6741   -1.1092   -0.0612 C   0  0  0  0  0  0  0  0  0  0  0  0
   -4.4297   -0.4322   -1.0540 O   0  0  0  0  0  0  0  0  0  0  0  0
   -5.2140   -2.3985   -0.1530 N   0  0  0  0  0  0  0  0  0  0  0  0
   -6.1451   -2.8505   -1.2056 C   0  0  0  0  0  0  0  0  0  0  0  0
   -5.3858   -3.1583   -2.5132 C   0  0  0  0  0  0  0  0  0  0  0  0
   -6.3883   -3.5852   -3.6063 C   0  0  0  0  0  0  0  0  0  0  0  0
   -7.4957   -2.5704   -3.7821 C   0  0  0  0  0  0  0  0  0  0  0  0
   -8.1411   -2.4568   -4.8130 O   0  0  0  0  0  0  0  0  0  0  0  0
   -7.9649   -1.8799   -2.6590 N   0  0  0  0  0  0  0  0  0  0  0  0
   -7.2867   -1.8628   -1.4320 C   0  0  0  0  0  0  0  0  0  0  0  0
   -7.8396   -1.2480   -0.5296 O   0  0  0  0  0  0  0  0  0  0  0  0
   -5.1742   -2.9397    1.1372 C   0  0  0  0  0  0  0  0  0  0  0  0
   -5.5134   -4.0931    1.3798 O   0  0  0  0  0  0  0  0  0  0  0  0
    4.6798   -0.8640   -2.1809 H   0  0  0  0  0  0  0  0  0  0  0  0
    3.6332    0.3111   -2.9796 H   0  0  0  0  0  0  0  0  0  0  0  0
    5.7285   -0.3302   -0.0986 H   0  0  0  0  0  0  0  0  0  0  0  0
    8.5556    0.7994    1.5264 H   0  0  0  0  0  0  0  0  0  0  0  0
    9.8247   -0.7264    0.0145 H   0  0  0  0  0  0  0  0  0  0  0  0
    6.8791   -3.8126    0.6530 H   0  0  0  0  0  0  0  0  0  0  0  0
    5.3915    1.1189    5.6031 H   0  0  0  0  0  0  0  0  0  0  0  0
    3.5249    3.6959    2.2518 H   0  0  0  0  0  0  0  0  0  0  0  0
    1.7610    4.8966    1.0713 H   0  0  0  0  0  0  0  0  0  0  0  0
    1.1003    4.2595   -1.2423 H   0  0  0  0  0  0  0  0  0  0  0  0
    2.2902    2.3834   -2.3926 H   0  0  0  0  0  0  0  0  0  0  0  0
    1.5009    0.7352   -1.4746 H   0  0  0  0  0  0  0  0  0  0  0  0
   -0.1951   -0.8433   -0.3331 H   0  0  0  0  0  0  0  0  0  0  0  0
    0.0765   -1.8844   -1.7450 H   0  0  0  0  0  0  0  0  0  0  0  0
   -1.9420   -0.1486   -1.7537 H   0  0  0  0  0  0  0  0  0  0  0  0
   -0.9794   -0.3785   -3.2298 H   0  0  0  0  0  0  0  0  0  0  0  0
   -1.8637    1.9081   -3.7124 H   0  0  0  0  0  0  0  0  0  0  0  0
   -0.8952    3.2365   -3.0450 H   0  0  0  0  0  0  0  0  0  0  0  0
   -3.0326    1.7423   -1.4480 H   0  0  0  0  0  0  0  0  0  0  0  0
   -3.3068    3.2827   -2.2861 H   0  0  0  0  0  0  0  0  0  0  0  0
   -2.4204    4.6203    0.8953 H   0  0  0  0  0  0  0  0  0  0  0  0
   -3.8228    3.8610    0.1267 H   0  0  0  0  0  0  0  0  0  0  0  0
   -1.6169    2.3289    1.6475 H   0  0  0  0  0  0  0  0  0  0  0  0
   -3.1045    2.9197    2.4150 H   0  0  0  0  0  0  0  0  0  0  0  0
   -3.6471    1.2720    0.0616 H   0  0  0  0  0  0  0  0  0  0  0  0
   -2.9140    1.0082    3.7053 H   0  0  0  0  0  0  0  0  0  0  0  0
   -3.4809   -1.0147    5.0249 H   0  0  0  0  0  0  0  0  0  0  0  0
   -4.5695   -2.9953    3.9144 H   0  0  0  0  0  0  0  0  0  0  0  0
   -6.6109   -3.7842   -0.8617 H   0  0  0  0  0  0  0  0  0  0  0  0
   -4.6381   -3.9432   -2.3406 H   0  0  0  0  0  0  0  0  0  0  0  0
   -4.8438   -2.2634   -2.8462 H   0  0  0  0  0  0  0  0  0  0  0  0
   -5.8648   -3.7184   -4.5613 H   0  0  0  0  0  0  0  0  0  0  0  0
   -6.8355   -4.5555   -3.3546 H   0  0  0  0  0  0  0  0  0  0  0  0
   -8.7821   -1.2956   -2.7600 H   0  0  0  0  0  0  0  0  0  0  0  0
  1  2  2  0  0  0  0
  2  3  1  0  0  0  0
  2 28  1  0  0  0  0
  3  4  1  0  0  0  0
  3 57  1  0  0  0  0
  3 58  1  0  0  0  0
  4  5  1  0  0  0  0
  4 27  1  0  0  0  0
  5  6  2  0  0  0  0
  5 59  1  0  0  0  0
  6  7  1  0  0  0  0
  6 22  1  0  0  0  0
  7  8  2  0  0  0  0
  7 20  1  0  0  0  0
  8  9  1  0  0  0  0
  8 17  1  0  0  0  0
  9 10  2  0  0  0  0
  9 15  1  0  0  0  0
 10 11  1  0  0  0  0
 10 60  1  0  0  0  0
 11 12  2  0  0  0  0
 11 61  1  0  0  0  0
 12 13  1  0  0  0  0
 12 14  1  0  0  0  0
 14 15  2  0  0  0  0
 14 62  1  0  0  0  0
 15 16  1  0  0  0  0
 17 18  2  0  0  0  0
 17 19  1  0  0  0  0
 19 20  1  0  0  0  0
 19 63  1  0  0  0  0
 20 21  2  0  0  0  0
 22 23  2  0  0  0  0
 22 27  1  0  0  0  0
 23 24  1  0  0  0  0
 23 64  1  0  0  0  0
 24 25  2  0  0  0  0
 24 65  1  0  0  0  0
 25 26  1  0  0  0  0
 25 66  1  0  0  0  0
 26 27  2  0  0  0  0
 26 67  1  0  0  0  0
 28 29  1  0  0  0  0
 28 68  1  0  0  0  0
 29 30  1  0  0  0  0
 29 69  1  0  0  0  0
 29 70  1  0  0  0  0
 30 31  1  0  0  0  0
 30 71  1  0  0  0  0
 30 72  1  0  0  0  0
 31 32  1  0  0  0  0
 32 33  1  0  0  0  0
 32 73  1  0  0  0  0
 32 74  1  0  0  0  0
 33 34  1  0  0  0  0
 33 75  1  0  0  0  0
 33 76  1  0  0  0  0
 34 35  1  0  0  0  0
 35 36  1  0  0  0  0
 35 77  1  0  0  0  0
 35 78  1  0  0  0  0
 36 37  1  0  0  0  0
 36 79  1  0  0  0  0
 36 80  1  0  0  0  0
 37 38  1  0  0  0  0
 37 81  1  0  0  0  0
 38 39  2  0  0  0  0
 38 43  1  0  0  0  0
 39 40  1  0  0  0  0
 39 82  1  0  0  0  0
 40 41  2  0  0  0  0
 40 83  1  0  0  0  0
 41 42  1  0  0  0  0
 41 84  1  0  0  0  0
 42 43  2  0  0  0  0
 42 55  1  0  0  0  0
 43 44  1  0  0  0  0
 44 45  2  0  0  0  0
 44 46  1  0  0  0  0
 46 47  1  0  0  0  0
 46 55  1  0  0  0  0
 47 48  1  0  0  0  0
 47 53  1  0  0  0  0
 47 85  1  0  0  0  0
 48 49  1  0  0  0  0
 48 86  1  0  0  0  0
 48 87  1  0  0  0  0
 49 50  1  0  0  0  0
 49 88  1  0  0  0  0
 49 89  1  0  0  0  0
 50 51  2  0  0  0  0
 50 52  1  0  0  0  0
 52 53  1  0  0  0  0
 52 90  1  0  0  0  0
 53 54  2  0  0  0  0
 55 56  2  0  0  0  0
M  END
$$$$
protac3895RUN2
  chem.cr 07102519423D
protac3895RUN2
 90 96  0  0  0  0  0  0  0  0999 V2000
    3.1428   -1.1942   -4.7646 O   0  0  0  0  0  0  0  0  0  0  0  0
    2.6603   -0.0748   -4.6721 C   0  0  0  0  0  0  0  0  0  0  0  0
    3.3874    1.1821   -5.0873 C   0  0  0  0  0  0  0  0  0  0  0  0
    3.1668    2.3320   -4.1857 N   0  0  0  0  0  0  0  0  0  0  0  0
    3.4251    2.2313   -2.8138 C   0  0  0  0  0  0  0  0  0  0  0  0
    2.6000    3.0362   -2.1057 C   0  0  0  0  0  0  0  0  0  0  0  0
    2.4519    3.0846   -0.7443 C   0  0  0  0  0  0  0  0  0  0  0  0
    3.2584    2.4972    0.1753 C   0  0  0  0  0  0  0  0  0  0  0  0
    4.4342    1.8127   -0.0750 C   0  0  0  0  0  0  0  0  0  0  0  0
    5.6037    2.5479   -0.3421 C   0  0  0  0  0  0  0  0  0  0  0  0
    6.8196    1.8856   -0.5860 C   0  0  0  0  0  0  0  0  0  0  0  0
    6.8717    0.4830   -0.5635 C   0  0  0  0  0  0  0  0  0  0  0  0
    8.3926   -0.3485   -0.8554 Cl  0  0  0  0  0  0  0  0  0  0  0  0
    5.7115   -0.2592   -0.2998 C   0  0  0  0  0  0  0  0  0  0  0  0
    4.4964    0.4010   -0.0516 C   0  0  0  0  0  0  0  0  0  0  0  0
    3.0645   -0.5679    0.2665 Cl  0  0  0  0  0  0  0  0  0  0  0  0
    2.8186    2.6874    1.4204 C   0  0  0  0  0  0  0  0  0  0  0  0
    3.2228    2.3376    2.5204 O   0  0  0  0  0  0  0  0  0  0  0  0
    1.6823    3.4699    1.3536 N   0  0  0  0  0  0  0  0  0  0  0  0
    1.4602    3.6515   -0.0080 C   0  0  0  0  0  0  0  0  0  0  0  0
    0.3954    4.1906   -0.2715 O   0  0  0  0  0  0  0  0  0  0  0  0
    1.8649    3.7502   -3.0736 C   0  0  0  0  0  0  0  0  0  0  0  0
    1.0846    4.9258   -2.9972 C   0  0  0  0  0  0  0  0  0  0  0  0
    0.5151    5.4632   -4.1721 C   0  0  0  0  0  0  0  0  0  0  0  0
    0.7760    4.8864   -5.4313 C   0  0  0  0  0  0  0  0  0  0  0  0
    1.6517    3.7930   -5.5309 C   0  0  0  0  0  0  0  0  0  0  0  0
    2.1821    3.2654   -4.3453 C   0  0  0  0  0  0  0  0  0  0  0  0
    1.3439    0.0759   -4.2130 N   0  0  0  0  0  0  0  0  0  0  0  0
    0.5649   -1.0207   -3.6201 C   0  0  0  0  0  0  0  0  0  0  0  0
   -0.4546   -0.4756   -2.6116 C   0  0  0  0  0  0  0  0  0  0  0  0
   -1.0777   -1.6079   -1.9868 O   0  0  0  0  0  0  0  0  0  0  0  0
   -1.6508   -1.3915   -0.6831 C   0  0  0  0  0  0  0  0  0  0  0  0
   -0.5101   -1.3528    0.3613 C   0  0  0  0  0  0  0  0  0  0  0  0
   -0.0018   -0.0109    0.4739 O   0  0  0  0  0  0  0  0  0  0  0  0
   -0.6555    0.8628    1.4027 C   0  0  0  0  0  0  0  0  0  0  0  0
   -0.0807    0.5838    2.8119 C   0  0  0  0  0  0  0  0  0  0  0  0
   -1.0450   -0.1943    3.5993 N   0  0  0  0  0  0  0  0  0  0  0  0
   -0.8721   -1.5319    3.9254 C   0  0  0  0  0  0  0  0  0  0  0  0
    0.3554   -2.0725    4.3672 C   0  0  0  0  0  0  0  0  0  0  0  0
    0.4632   -3.4471    4.7005 C   0  0  0  0  0  0  0  0  0  0  0  0
   -0.6591   -4.3012    4.5960 C   0  0  0  0  0  0  0  0  0  0  0  0
   -1.8684   -3.7483    4.1531 C   0  0  0  0  0  0  0  0  0  0  0  0
   -1.9632   -2.3973    3.8217 C   0  0  0  0  0  0  0  0  0  0  0  0
   -3.2356   -2.1428    3.3690 C   0  0  0  0  0  0  0  0  0  0  0  0
   -3.5650   -1.2504    2.5942 O   0  0  0  0  0  0  0  0  0  0  0  0
   -3.9482   -3.3439    3.4149 N   0  0  0  0  0  0  0  0  0  0  0  0
   -5.3914   -3.4859    3.1451 C   0  0  0  0  0  0  0  0  0  0  0  0
   -5.6031   -3.7658    1.6365 C   0  0  0  0  0  0  0  0  0  0  0  0
   -7.0691   -3.5067    1.2342 C   0  0  0  0  0  0  0  0  0  0  0  0
   -7.4614   -2.0904    1.5771 C   0  0  0  0  0  0  0  0  0  0  0  0
   -8.2233   -1.4095    0.9086 O   0  0  0  0  0  0  0  0  0  0  0  0
   -7.0362   -1.5724    2.8022 N   0  0  0  0  0  0  0  0  0  0  0  0
   -6.1782   -2.2757    3.6609 C   0  0  0  0  0  0  0  0  0  0  0  0
   -6.1322   -1.8808    4.8186 O   0  0  0  0  0  0  0  0  0  0  0  0
   -3.0989   -4.3268    3.9321 C   0  0  0  0  0  0  0  0  0  0  0  0
   -3.3980   -5.5161    3.9265 O   0  0  0  0  0  0  0  0  0  0  0  0
    4.4610    0.9667   -5.1240 H   0  0  0  0  0  0  0  0  0  0  0  0
    3.0744    1.4451   -6.1029 H   0  0  0  0  0  0  0  0  0  0  0  0
    4.1240    1.4687   -2.4835 H   0  0  0  0  0  0  0  0  0  0  0  0
    5.5634    3.6340   -0.3537 H   0  0  0  0  0  0  0  0  0  0  0  0
    7.7197    2.4598   -0.7852 H   0  0  0  0  0  0  0  0  0  0  0  0
    5.7531   -1.3457   -0.2811 H   0  0  0  0  0  0  0  0  0  0  0  0
    0.9578    3.4967    2.0529 H   0  0  0  0  0  0  0  0  0  0  0  0
    0.9496    5.4761   -2.0773 H   0  0  0  0  0  0  0  0  0  0  0  0
   -0.1005    6.3572   -4.1077 H   0  0  0  0  0  0  0  0  0  0  0  0
    0.3486    5.3262   -6.3286 H   0  0  0  0  0  0  0  0  0  0  0  0
    1.9309    3.3967   -6.5021 H   0  0  0  0  0  0  0  0  0  0  0  0
    1.0055    1.0248   -4.0945 H   0  0  0  0  0  0  0  0  0  0  0  0
    1.2478   -1.7109   -3.1035 H   0  0  0  0  0  0  0  0  0  0  0  0
    0.0505   -1.5820   -4.4115 H   0  0  0  0  0  0  0  0  0  0  0  0
   -1.2012    0.1503   -3.1177 H   0  0  0  0  0  0  0  0  0  0  0  0
    0.0819    0.1497   -1.8893 H   0  0  0  0  0  0  0  0  0  0  0  0
   -2.3128   -2.2300   -0.4333 H   0  0  0  0  0  0  0  0  0  0  0  0
   -2.2459   -0.4707   -0.6483 H   0  0  0  0  0  0  0  0  0  0  0  0
    0.2876   -2.0322    0.0363 H   0  0  0  0  0  0  0  0  0  0  0  0
   -0.8826   -1.7207    1.3233 H   0  0  0  0  0  0  0  0  0  0  0  0
   -0.4439    1.9010    1.1280 H   0  0  0  0  0  0  0  0  0  0  0  0
   -1.7462    0.7357    1.3778 H   0  0  0  0  0  0  0  0  0  0  0  0
    0.8796    0.0589    2.7185 H   0  0  0  0  0  0  0  0  0  0  0  0
    0.1163    1.5366    3.3197 H   0  0  0  0  0  0  0  0  0  0  0  0
   -2.0182    0.0618    3.4715 H   0  0  0  0  0  0  0  0  0  0  0  0
    1.2248   -1.4299    4.4673 H   0  0  0  0  0  0  0  0  0  0  0  0
    1.4166   -3.8444    5.0415 H   0  0  0  0  0  0  0  0  0  0  0  0
   -0.5870   -5.3570    4.8460 H   0  0  0  0  0  0  0  0  0  0  0  0
   -5.7584   -4.3513    3.7135 H   0  0  0  0  0  0  0  0  0  0  0  0
   -5.3042   -4.7967    1.4031 H   0  0  0  0  0  0  0  0  0  0  0  0
   -4.9520   -3.0994    1.0523 H   0  0  0  0  0  0  0  0  0  0  0  0
   -7.1998   -3.6706    0.1573 H   0  0  0  0  0  0  0  0  0  0  0  0
   -7.7424   -4.1994    1.7535 H   0  0  0  0  0  0  0  0  0  0  0  0
   -7.3897   -0.6775    3.1031 H   0  0  0  0  0  0  0  0  0  0  0  0
  1  2  2  0  0  0  0
  2  3  1  0  0  0  0
  2 28  1  0  0  0  0
  3  4  1  0  0  0  0
  3 57  1  0  0  0  0
  3 58  1  0  0  0  0
  4  5  1  0  0  0  0
  4 27  1  0  0  0  0
  5  6  2  0  0  0  0
  5 59  1  0  0  0  0
  6  7  1  0  0  0  0
  6 22  1  0  0  0  0
  7  8  2  0  0  0  0
  7 20  1  0  0  0  0
  8  9  1  0  0  0  0
  8 17  1  0  0  0  0
  9 10  2  0  0  0  0
  9 15  1  0  0  0  0
 10 11  1  0  0  0  0
 10 60  1  0  0  0  0
 11 12  2  0  0  0  0
 11 61  1  0  0  0  0
 12 13  1  0  0  0  0
 12 14  1  0  0  0  0
 14 15  2  0  0  0  0
 14 62  1  0  0  0  0
 15 16  1  0  0  0  0
 17 18  2  0  0  0  0
 17 19  1  0  0  0  0
 19 20  1  0  0  0  0
 19 63  1  0  0  0  0
 20 21  2  0  0  0  0
 22 23  2  0  0  0  0
 22 27  1  0  0  0  0
 23 24  1  0  0  0  0
 23 64  1  0  0  0  0
 24 25  2  0  0  0  0
 24 65  1  0  0  0  0
 25 26  1  0  0  0  0
 25 66  1  0  0  0  0
 26 27  2  0  0  0  0
 26 67  1  0  0  0  0
 28 29  1  0  0  0  0
 28 68  1  0  0  0  0
 29 30  1  0  0  0  0
 29 69  1  0  0  0  0
 29 70  1  0  0  0  0
 30 31  1  0  0  0  0
 30 71  1  0  0  0  0
 30 72  1  0  0  0  0
 31 32  1  0  0  0  0
 32 33  1  0  0  0  0
 32 73  1  0  0  0  0
 32 74  1  0  0  0  0
 33 34  1  0  0  0  0
 33 75  1  0  0  0  0
 33 76  1  0  0  0  0
 34 35  1  0  0  0  0
 35 36  1  0  0  0  0
 35 77  1  0  0  0  0
 35 78  1  0  0  0  0
 36 37  1  0  0  0  0
 36 79  1  0  0  0  0
 36 80  1  0  0  0  0
 37 38  1  0  0  0  0
 37 81  1  0  0  0  0
 38 39  2  0  0  0  0
 38 43  1  0  0  0  0
 39 40  1  0  0  0  0
 39 82  1  0  0  0  0
 40 41  2  0  0  0  0
 40 83  1  0  0  0  0
 41 42  1  0  0  0  0
 41 84  1  0  0  0  0
 42 43  2  0  0  0  0
 42 55  1  0  0  0  0
 43 44  1  0  0  0  0
 44 45  2  0  0  0  0
 44 46  1  0  0  0  0
 46 47  1  0  0  0  0
 46 55  1  0  0  0  0
 47 48  1  0  0  0  0
 47 53  1  0  0  0  0
 47 85  1  0  0  0  0
 48 49  1  0  0  0  0
 48 86  1  0  0  0  0
 48 87  1  0  0  0  0
 49 50  1  0  0  0  0
 49 88  1  0  0  0  0
 49 89  1  0  0  0  0
 50 51  2  0  0  0  0
 50 52  1  0  0  0  0
 52 53  1  0  0  0  0
 52 90  1  0  0  0  0
 53 54  2  0  0  0  0
 55 56  2  0  0  0  0
M  END
$$$$
protac3895RUN2
  chem.cr 07102519423D
protac3895RUN2
 90 96  0  0  0  0  0  0  0  0999 V2000
    1.1166   -2.1897    3.6752 O   0  0  0  0  0  0  0  0  0  0  0  0
    1.1218   -2.0548    2.4589 C   0  0  0  0  0  0  0  0  0  0  0  0
    1.4848   -3.1690    1.5106 C   0  0  0  0  0  0  0  0  0  0  0  0
    2.6816   -2.8822    0.6982 N   0  0  0  0  0  0  0  0  0  0  0  0
    3.9895   -3.1554    1.1045 C   0  0  0  0  0  0  0  0  0  0  0  0
    4.8710   -2.7370    0.1648 C   0  0  0  0  0  0  0  0  0  0  0  0
    6.2367   -2.6956    0.2659 C   0  0  0  0  0  0  0  0  0  0  0  0
    6.9931   -3.3025    1.2131 C   0  0  0  0  0  0  0  0  0  0  0  0
    6.5417   -4.1414    2.2152 C   0  0  0  0  0  0  0  0  0  0  0  0
    6.1972   -5.4709    1.8973 C   0  0  0  0  0  0  0  0  0  0  0  0
    5.7312   -6.3437    2.8972 C   0  0  0  0  0  0  0  0  0  0  0  0
    5.6052   -5.8859    4.2196 C   0  0  0  0  0  0  0  0  0  0  0  0
    5.0229   -6.9727    5.4750 Cl  0  0  0  0  0  0  0  0  0  0  0  0
    5.9484   -4.5620    4.5467 C   0  0  0  0  0  0  0  0  0  0  0  0
    6.4223   -3.6927    3.5490 C   0  0  0  0  0  0  0  0  0  0  0  0
    6.8344   -2.0340    3.9872 Cl  0  0  0  0  0  0  0  0  0  0  0  0
    8.2914   -3.0412    1.0585 C   0  0  0  0  0  0  0  0  0  0  0  0
    9.2973   -3.3842    1.6655 O   0  0  0  0  0  0  0  0  0  0  0  0
    8.4354   -2.2259   -0.0469 N   0  0  0  0  0  0  0  0  0  0  0  0
    7.1325   -2.0083   -0.4925 C   0  0  0  0  0  0  0  0  0  0  0  0
    7.0349   -1.1812   -1.3868 O   0  0  0  0  0  0  0  0  0  0  0  0
    4.0768   -2.2957   -0.9135 C   0  0  0  0  0  0  0  0  0  0  0  0
    4.3883   -2.0569   -2.2719 C   0  0  0  0  0  0  0  0  0  0  0  0
    3.3535   -1.7208   -3.1723 C   0  0  0  0  0  0  0  0  0  0  0  0
    2.0079   -1.6916   -2.7526 C   0  0  0  0  0  0  0  0  0  0  0  0
    1.6768   -2.0348   -1.4312 C   0  0  0  0  0  0  0  0  0  0  0  0
    2.7256   -2.3447   -0.5552 C   0  0  0  0  0  0  0  0  0  0  0  0
    0.6465   -0.8593    1.8968 N   0  0  0  0  0  0  0  0  0  0  0  0
    0.3143    0.3186    2.7164 C   0  0  0  0  0  0  0  0  0  0  0  0
   -0.5452    1.3480    1.9609 C   0  0  0  0  0  0  0  0  0  0  0  0
   -0.4866    2.5625    2.7256 O   0  0  0  0  0  0  0  0  0  0  0  0
   -1.3149    3.6518    2.2807 C   0  0  0  0  0  0  0  0  0  0  0  0
   -2.7780    3.3814    2.7103 C   0  0  0  0  0  0  0  0  0  0  0  0
   -3.3643    4.5864    3.2555 O   0  0  0  0  0  0  0  0  0  0  0  0
   -3.5935    5.7133    2.3824 C   0  0  0  0  0  0  0  0  0  0  0  0
   -4.8912    5.5017    1.5708 C   0  0  0  0  0  0  0  0  0  0  0  0
   -4.6571    4.5881    0.4457 N   0  0  0  0  0  0  0  0  0  0  0  0
   -5.6420    3.9215   -0.2687 C   0  0  0  0  0  0  0  0  0  0  0  0
   -7.0094    4.2775   -0.2104 C   0  0  0  0  0  0  0  0  0  0  0  0
   -7.9719    3.5881   -0.9892 C   0  0  0  0  0  0  0  0  0  0  0  0
   -7.5857    2.5290   -1.8375 C   0  0  0  0  0  0  0  0  0  0  0  0
   -6.2300    2.1775   -1.8738 C   0  0  0  0  0  0  0  0  0  0  0  0
   -5.2854    2.8562   -1.1074 C   0  0  0  0  0  0  0  0  0  0  0  0
   -4.0531    2.3019   -1.3667 C   0  0  0  0  0  0  0  0  0  0  0  0
   -2.9827    2.5206   -0.8095 O   0  0  0  0  0  0  0  0  0  0  0  0
   -4.2059    1.2863   -2.3165 N   0  0  0  0  0  0  0  0  0  0  0  0
   -3.0735    0.5435   -2.9273 C   0  0  0  0  0  0  0  0  0  0  0  0
   -2.2244    1.4724   -3.8218 C   0  0  0  0  0  0  0  0  0  0  0  0
   -3.0182    1.8125   -5.1017 C   0  0  0  0  0  0  0  0  0  0  0  0
   -3.5259    0.5731   -5.8082 C   0  0  0  0  0  0  0  0  0  0  0  0
   -3.7292    0.5274   -7.0124 O   0  0  0  0  0  0  0  0  0  0  0  0
   -3.6512   -0.6261   -5.0925 N   0  0  0  0  0  0  0  0  0  0  0  0
   -3.4742   -0.7063   -3.7013 C   0  0  0  0  0  0  0  0  0  0  0  0
   -3.4337   -1.8309   -3.2221 O   0  0  0  0  0  0  0  0  0  0  0  0
   -5.5828    1.2075   -2.6088 C   0  0  0  0  0  0  0  0  0  0  0  0
   -6.0587    0.5036   -3.4897 O   0  0  0  0  0  0  0  0  0  0  0  0
    1.6716   -4.0737    2.1000 H   0  0  0  0  0  0  0  0  0  0  0  0
    0.6369   -3.3855    0.8549 H   0  0  0  0  0  0  0  0  0  0  0  0
    4.1495   -3.5323    2.1088 H   0  0  0  0  0  0  0  0  0  0  0  0
    6.2962   -5.8216    0.8730 H   0  0  0  0  0  0  0  0  0  0  0  0
    5.4724   -7.3708    2.6481 H   0  0  0  0  0  0  0  0  0  0  0  0
    5.8497   -4.2086    5.5696 H   0  0  0  0  0  0  0  0  0  0  0  0
    9.1734   -1.5459   -0.1429 H   0  0  0  0  0  0  0  0  0  0  0  0
    5.3890   -2.1835   -2.6647 H   0  0  0  0  0  0  0  0  0  0  0  0
    3.5918   -1.5195   -4.2125 H   0  0  0  0  0  0  0  0  0  0  0  0
    1.2208   -1.4620   -3.4675 H   0  0  0  0  0  0  0  0  0  0  0  0
    0.6403   -2.0983   -1.1197 H   0  0  0  0  0  0  0  0  0  0  0  0
    0.7640   -0.7335    0.8981 H   0  0  0  0  0  0  0  0  0  0  0  0
    1.2518    0.7915    3.0401 H   0  0  0  0  0  0  0  0  0  0  0  0
   -0.2218    0.0000    3.6229 H   0  0  0  0  0  0  0  0  0  0  0  0
   -1.5752    0.9789    1.8640 H   0  0  0  0  0  0  0  0  0  0  0  0
   -0.1321    1.5135    0.9577 H   0  0  0  0  0  0  0  0  0  0  0  0
   -1.2510    3.7845    1.1927 H   0  0  0  0  0  0  0  0  0  0  0  0
   -0.9667    4.5765    2.7568 H   0  0  0  0  0  0  0  0  0  0  0  0
   -2.7720    2.6131    3.4926 H   0  0  0  0  0  0  0  0  0  0  0  0
   -3.3531    2.9776    1.8706 H   0  0  0  0  0  0  0  0  0  0  0  0
   -3.7270    6.6112    2.9989 H   0  0  0  0  0  0  0  0  0  0  0  0
   -2.7422    5.8997    1.7149 H   0  0  0  0  0  0  0  0  0  0  0  0
   -5.6743    5.1083    2.2341 H   0  0  0  0  0  0  0  0  0  0  0  0
   -5.2327    6.4722    1.1875 H   0  0  0  0  0  0  0  0  0  0  0  0
   -3.7127    4.2359    0.3239 H   0  0  0  0  0  0  0  0  0  0  0  0
   -7.3319    5.0970    0.4259 H   0  0  0  0  0  0  0  0  0  0  0  0
   -9.0165    3.8823   -0.9384 H   0  0  0  0  0  0  0  0  0  0  0  0
   -8.3147    2.0038   -2.4490 H   0  0  0  0  0  0  0  0  0  0  0  0
   -2.4420    0.2031   -2.0952 H   0  0  0  0  0  0  0  0  0  0  0  0
   -1.2893    0.9613   -4.0920 H   0  0  0  0  0  0  0  0  0  0  0  0
   -1.9426    2.3861   -3.2816 H   0  0  0  0  0  0  0  0  0  0  0  0
   -3.8763    2.4475   -4.8532 H   0  0  0  0  0  0  0  0  0  0  0  0
   -2.3903    2.3945   -5.7884 H   0  0  0  0  0  0  0  0  0  0  0  0
   -3.9533   -1.4525   -5.5887 H   0  0  0  0  0  0  0  0  0  0  0  0
  1  2  2  0  0  0  0
  2  3  1  0  0  0  0
  2 28  1  0  0  0  0
  3  4  1  0  0  0  0
  3 57  1  0  0  0  0
  3 58  1  0  0  0  0
  4  5  1  0  0  0  0
  4 27  1  0  0  0  0
  5  6  2  0  0  0  0
  5 59  1  0  0  0  0
  6  7  1  0  0  0  0
  6 22  1  0  0  0  0
  7  8  2  0  0  0  0
  7 20  1  0  0  0  0
  8  9  1  0  0  0  0
  8 17  1  0  0  0  0
  9 10  2  0  0  0  0
  9 15  1  0  0  0  0
 10 11  1  0  0  0  0
 10 60  1  0  0  0  0
 11 12  2  0  0  0  0
 11 61  1  0  0  0  0
 12 13  1  0  0  0  0
 12 14  1  0  0  0  0
 14 15  2  0  0  0  0
 14 62  1  0  0  0  0
 15 16  1  0  0  0  0
 17 18  2  0  0  0  0
 17 19  1  0  0  0  0
 19 20  1  0  0  0  0
 19 63  1  0  0  0  0
 20 21  2  0  0  0  0
 22 23  2  0  0  0  0
 22 27  1  0  0  0  0
 23 24  1  0  0  0  0
 23 64  1  0  0  0  0
 24 25  2  0  0  0  0
 24 65  1  0  0  0  0
 25 26  1  0  0  0  0
 25 66  1  0  0  0  0
 26 27  2  0  0  0  0
 26 67  1  0  0  0  0
 28 29  1  0  0  0  0
 28 68  1  0  0  0  0
 29 30  1  0  0  0  0
 29 69  1  0  0  0  0
 29 70  1  0  0  0  0
 30 31  1  0  0  0  0
 30 71  1  0  0  0  0
 30 72  1  0  0  0  0
 31 32  1  0  0  0  0
 32 33  1  0  0  0  0
 32 73  1  0  0  0  0
 32 74  1  0  0  0  0
 33 34  1  0  0  0  0
 33 75  1  0  0  0  0
 33 76  1  0  0  0  0
 34 35  1  0  0  0  0
 35 36  1  0  0  0  0
 35 77  1  0  0  0  0
 35 78  1  0  0  0  0
 36 37  1  0  0  0  0
 36 79  1  0  0  0  0
 36 80  1  0  0  0  0
 37 38  1  0  0  0  0
 37 81  1  0  0  0  0
 38 39  2  0  0  0  0
 38 43  1  0  0  0  0
 39 40  1  0  0  0  0
 39 82  1  0  0  0  0
 40 41  2  0  0  0  0
 40 83  1  0  0  0  0
 41 42  1  0  0  0  0
 41 84  1  0  0  0  0
 42 43  2  0  0  0  0
 42 55  1  0  0  0  0
 43 44  1  0  0  0  0
 44 45  2  0  0  0  0
 44 46  1  0  0  0  0
 46 47  1  0  0  0  0
 46 55  1  0  0  0  0
 47 48  1  0  0  0  0
 47 53  1  0  0  0  0
 47 85  1  0  0  0  0
 48 49  1  0  0  0  0
 48 86  1  0  0  0  0
 48 87  1  0  0  0  0
 49 50  1  0  0  0  0
 49 88  1  0  0  0  0
 49 89  1  0  0  0  0
 50 51  2  0  0  0  0
 50 52  1  0  0  0  0
 52 53  1  0  0  0  0
 52 90  1  0  0  0  0
 53 54  2  0  0  0  0
 55 56  2  0  0  0  0
M  END
$$$$
protac3895RUN2
  chem.cr 07102519423D
protac3895RUN2
 90 96  0  0  0  0  0  0  0  0999 V2000
    0.6242   -4.0698    3.2280 O   0  0  0  0  0  0  0  0  0  0  0  0
    1.3243   -3.8371    2.2551 C   0  0  0  0  0  0  0  0  0  0  0  0
    2.5390   -4.6654    1.8877 C   0  0  0  0  0  0  0  0  0  0  0  0
    3.8267   -3.9675    2.0918 N   0  0  0  0  0  0  0  0  0  0  0  0
    4.0184   -3.1623    3.2167 C   0  0  0  0  0  0  0  0  0  0  0  0
    4.8295   -2.1123    2.9458 C   0  0  0  0  0  0  0  0  0  0  0  0
    5.1149   -1.0455    3.7649 C   0  0  0  0  0  0  0  0  0  0  0  0
    4.7464   -0.9070    5.0657 C   0  0  0  0  0  0  0  0  0  0  0  0
    4.0050   -1.7970    5.8168 C   0  0  0  0  0  0  0  0  0  0  0  0
    4.6546   -2.8007    6.5581 C   0  0  0  0  0  0  0  0  0  0  0  0
    3.9041   -3.7300    7.3025 C   0  0  0  0  0  0  0  0  0  0  0  0
    2.5010   -3.6514    7.3128 C   0  0  0  0  0  0  0  0  0  0  0  0
    1.5586   -4.8191    8.2295 Cl  0  0  0  0  0  0  0  0  0  0  0  0
    1.8465   -2.6417    6.5907 C   0  0  0  0  0  0  0  0  0  0  0  0
    2.5934   -1.7132    5.8482 C   0  0  0  0  0  0  0  0  0  0  0  0
    1.7405   -0.4702    4.9358 Cl  0  0  0  0  0  0  0  0  0  0  0  0
    5.1410    0.2547    5.5842 C   0  0  0  0  0  0  0  0  0  0  0  0
    4.9919    0.7846    6.6760 O   0  0  0  0  0  0  0  0  0  0  0  0
    5.8309    0.9441    4.6083 N   0  0  0  0  0  0  0  0  0  0  0  0
    5.7429    0.1292    3.4817 C   0  0  0  0  0  0  0  0  0  0  0  0
    6.1502    0.6610    2.4596 O   0  0  0  0  0  0  0  0  0  0  0  0
    5.2604   -2.3295    1.6179 C   0  0  0  0  0  0  0  0  0  0  0  0
    6.3012   -1.7701    0.8446 C   0  0  0  0  0  0  0  0  0  0  0  0
    6.5113   -2.2198   -0.4775 C   0  0  0  0  0  0  0  0  0  0  0  0
    5.7522   -3.2789   -1.0135 C   0  0  0  0  0  0  0  0  0  0  0  0
    4.8028   -3.9314   -0.2067 C   0  0  0  0  0  0  0  0  0  0  0  0
    4.5947   -3.4430    1.0911 C   0  0  0  0  0  0  0  0  0  0  0  0
    0.8577   -2.8749    1.3515 N   0  0  0  0  0  0  0  0  0  0  0  0
    1.7515   -2.0172    0.5585 C   0  0  0  0  0  0  0  0  0  0  0  0
    0.9799   -1.0544   -0.3663 C   0  0  0  0  0  0  0  0  0  0  0  0
   -0.0771   -0.4086    0.3616 O   0  0  0  0  0  0  0  0  0  0  0  0
    0.3135    0.5078    1.3986 C   0  0  0  0  0  0  0  0  0  0  0  0
   -0.9756    1.0814    2.0186 C   0  0  0  0  0  0  0  0  0  0  0  0
   -1.5386    2.0244    1.0891 O   0  0  0  0  0  0  0  0  0  0  0  0
   -2.9639    1.9625    0.9015 C   0  0  0  0  0  0  0  0  0  0  0  0
   -3.3070    0.7224    0.0325 C   0  0  0  0  0  0  0  0  0  0  0  0
   -3.8059    1.1106   -1.2974 N   0  0  0  0  0  0  0  0  0  0  0  0
   -3.0747    1.7355   -2.3039 C   0  0  0  0  0  0  0  0  0  0  0  0
   -1.6788    1.9616   -2.2382 C   0  0  0  0  0  0  0  0  0  0  0  0
   -0.9989    2.6397   -3.2810 C   0  0  0  0  0  0  0  0  0  0  0  0
   -1.7012    3.1040   -4.4140 C   0  0  0  0  0  0  0  0  0  0  0  0
   -3.0788    2.8587   -4.4769 C   0  0  0  0  0  0  0  0  0  0  0  0
   -3.7403    2.1840   -3.4522 C   0  0  0  0  0  0  0  0  0  0  0  0
   -5.0646    2.0859   -3.8008 C   0  0  0  0  0  0  0  0  0  0  0  0
   -5.9387    1.4065   -3.2718 O   0  0  0  0  0  0  0  0  0  0  0  0
   -5.2446    2.6658   -5.0597 N   0  0  0  0  0  0  0  0  0  0  0  0
   -6.5614    3.0909   -5.5760 C   0  0  0  0  0  0  0  0  0  0  0  0
   -6.7731    2.6506   -7.0522 C   0  0  0  0  0  0  0  0  0  0  0  0
   -6.8282    3.8491   -8.0284 C   0  0  0  0  0  0  0  0  0  0  0  0
   -7.7580    4.9197   -7.5171 C   0  0  0  0  0  0  0  0  0  0  0  0
   -8.5044    5.5800   -8.2247 O   0  0  0  0  0  0  0  0  0  0  0  0
   -7.6172    5.2998   -6.1829 N   0  0  0  0  0  0  0  0  0  0  0  0
   -6.8145    4.5719   -5.2964 C   0  0  0  0  0  0  0  0  0  0  0  0
   -6.6416    5.0844   -4.2003 O   0  0  0  0  0  0  0  0  0  0  0  0
   -4.0010    3.1848   -5.4467 C   0  0  0  0  0  0  0  0  0  0  0  0
   -3.7938    3.6491   -6.5630 O   0  0  0  0  0  0  0  0  0  0  0  0
    2.5402   -5.5684    2.5098 H   0  0  0  0  0  0  0  0  0  0  0  0
    2.4502   -4.9878    0.8458 H   0  0  0  0  0  0  0  0  0  0  0  0
    3.4392   -3.4071    4.0997 H   0  0  0  0  0  0  0  0  0  0  0  0
    5.7391   -2.8621    6.5512 H   0  0  0  0  0  0  0  0  0  0  0  0
    4.4064   -4.5045    7.8754 H   0  0  0  0  0  0  0  0  0  0  0  0
    0.7605   -2.5837    6.5996 H   0  0  0  0  0  0  0  0  0  0  0  0
    5.8781    1.9491    4.5607 H   0  0  0  0  0  0  0  0  0  0  0  0
    6.9942   -1.0452    1.2401 H   0  0  0  0  0  0  0  0  0  0  0  0
    7.2936   -1.7625   -1.0778 H   0  0  0  0  0  0  0  0  0  0  0  0
    5.9436   -3.6257   -2.0273 H   0  0  0  0  0  0  0  0  0  0  0  0
    4.2675   -4.8009   -0.5732 H   0  0  0  0  0  0  0  0  0  0  0  0
   -0.0849   -2.5346    1.5059 H   0  0  0  0  0  0  0  0  0  0  0  0
    2.4026   -2.6385   -0.0669 H   0  0  0  0  0  0  0  0  0  0  0  0
    2.3967   -1.4450    1.2396 H   0  0  0  0  0  0  0  0  0  0  0  0
    0.5506   -1.6345   -1.1931 H   0  0  0  0  0  0  0  0  0  0  0  0
    1.6709   -0.3206   -0.8017 H   0  0  0  0  0  0  0  0  0  0  0  0
    0.9326    1.3239    1.0016 H   0  0  0  0  0  0  0  0  0  0  0  0
    0.8764   -0.0114    2.1828 H   0  0  0  0  0  0  0  0  0  0  0  0
   -0.7374    1.5897    2.9624 H   0  0  0  0  0  0  0  0  0  0  0  0
   -1.6672    0.2582    2.2424 H   0  0  0  0  0  0  0  0  0  0  0  0
   -3.4791    1.8992    1.8678 H   0  0  0  0  0  0  0  0  0  0  0  0
   -3.3199    2.8733    0.4006 H   0  0  0  0  0  0  0  0  0  0  0  0
   -2.4309    0.0748   -0.0829 H   0  0  0  0  0  0  0  0  0  0  0  0
   -4.0775    0.1313    0.5440 H   0  0  0  0  0  0  0  0  0  0  0  0
   -4.7999    1.0051   -1.4844 H   0  0  0  0  0  0  0  0  0  0  0  0
   -1.1122    1.6229   -1.3776 H   0  0  0  0  0  0  0  0  0  0  0  0
    0.0718    2.8098   -3.2015 H   0  0  0  0  0  0  0  0  0  0  0  0
   -1.1946    3.6335   -5.2173 H   0  0  0  0  0  0  0  0  0  0  0  0
   -7.3154    2.5571   -4.9827 H   0  0  0  0  0  0  0  0  0  0  0  0
   -7.7217    2.1015   -7.1167 H   0  0  0  0  0  0  0  0  0  0  0  0
   -5.9881    1.9447   -7.3594 H   0  0  0  0  0  0  0  0  0  0  0  0
   -5.8289    4.2815   -8.1582 H   0  0  0  0  0  0  0  0  0  0  0  0
   -7.1586    3.5174   -9.0204 H   0  0  0  0  0  0  0  0  0  0  0  0
   -8.0233    6.1675   -5.8676 H   0  0  0  0  0  0  0  0  0  0  0  0
  1  2  2  0  0  0  0
  2  3  1  0  0  0  0
  2 28  1  0  0  0  0
  3  4  1  0  0  0  0
  3 57  1  0  0  0  0
  3 58  1  0  0  0  0
  4  5  1  0  0  0  0
  4 27  1  0  0  0  0
  5  6  2  0  0  0  0
  5 59  1  0  0  0  0
  6  7  1  0  0  0  0
  6 22  1  0  0  0  0
  7  8  2  0  0  0  0
  7 20  1  0  0  0  0
  8  9  1  0  0  0  0
  8 17  1  0  0  0  0
  9 10  2  0  0  0  0
  9 15  1  0  0  0  0
 10 11  1  0  0  0  0
 10 60  1  0  0  0  0
 11 12  2  0  0  0  0
 11 61  1  0  0  0  0
 12 13  1  0  0  0  0
 12 14  1  0  0  0  0
 14 15  2  0  0  0  0
 14 62  1  0  0  0  0
 15 16  1  0  0  0  0
 17 18  2  0  0  0  0
 17 19  1  0  0  0  0
 19 20  1  0  0  0  0
 19 63  1  0  0  0  0
 20 21  2  0  0  0  0
 22 23  2  0  0  0  0
 22 27  1  0  0  0  0
 23 24  1  0  0  0  0
 23 64  1  0  0  0  0
 24 25  2  0  0  0  0
 24 65  1  0  0  0  0
 25 26  1  0  0  0  0
 25 66  1  0  0  0  0
 26 27  2  0  0  0  0
 26 67  1  0  0  0  0
 28 29  1  0  0  0  0
 28 68  1  0  0  0  0
 29 30  1  0  0  0  0
 29 69  1  0  0  0  0
 29 70  1  0  0  0  0
 30 31  1  0  0  0  0
 30 71  1  0  0  0  0
 30 72  1  0  0  0  0
 31 32  1  0  0  0  0
 32 33  1  0  0  0  0
 32 73  1  0  0  0  0
 32 74  1  0  0  0  0
 33 34  1  0  0  0  0
 33 75  1  0  0  0  0
 33 76  1  0  0  0  0
 34 35  1  0  0  0  0
 35 36  1  0  0  0  0
 35 77  1  0  0  0  0
 35 78  1  0  0  0  0
 36 37  1  0  0  0  0
 36 79  1  0  0  0  0
 36 80  1  0  0  0  0
 37 38  1  0  0  0  0
 37 81  1  0  0  0  0
 38 39  2  0  0  0  0
 38 43  1  0  0  0  0
 39 40  1  0  0  0  0
 39 82  1  0  0  0  0
 40 41  2  0  0  0  0
 40 83  1  0  0  0  0
 41 42  1  0  0  0  0
 41 84  1  0  0  0  0
 42 43  2  0  0  0  0
 42 55  1  0  0  0  0
 43 44  1  0  0  0  0
 44 45  2  0  0  0  0
 44 46  1  0  0  0  0
 46 47  1  0  0  0  0
 46 55  1  0  0  0  0
 47 48  1  0  0  0  0
 47 53  1  0  0  0  0
 47 85  1  0  0  0  0
 48 49  1  0  0  0  0
 48 86  1  0  0  0  0
 48 87  1  0  0  0  0
 49 50  1  0  0  0  0
 49 88  1  0  0  0  0
 49 89  1  0  0  0  0
 50 51  2  0  0  0  0
 50 52  1  0  0  0  0
 52 53  1  0  0  0  0
 52 90  1  0  0  0  0
 53 54  2  0  0  0  0
 55 56  2  0  0  0  0
M  END
$$$$
protac3895RUN2
  chem.cr 07102519423D
protac3895RUN2
 90 96  0  0  0  0  0  0  0  0999 V2000
    1.2071   -4.1619    2.6683 O   0  0  0  0  0  0  0  0  0  0  0  0
    2.1507   -3.8831    1.9456 C   0  0  0  0  0  0  0  0  0  0  0  0
    3.5938   -4.1160    2.3481 C   0  0  0  0  0  0  0  0  0  0  0  0
    4.3547   -2.8883    2.6457 N   0  0  0  0  0  0  0  0  0  0  0  0
    3.7345   -1.8136    3.3022 C   0  0  0  0  0  0  0  0  0  0  0  0
    4.1623   -0.6326    2.8012 C   0  0  0  0  0  0  0  0  0  0  0  0
    3.6695    0.6126    3.0658 C   0  0  0  0  0  0  0  0  0  0  0  0
    2.8625    0.9548    4.0985 C   0  0  0  0  0  0  0  0  0  0  0  0
    2.4783    0.1368    5.1466 C   0  0  0  0  0  0  0  0  0  0  0  0
    3.4437   -0.2452    6.0985 C   0  0  0  0  0  0  0  0  0  0  0  0
    3.0892   -1.0532    7.1915 C   0  0  0  0  0  0  0  0  0  0  0  0
    1.7624   -1.4841    7.3418 C   0  0  0  0  0  0  0  0  0  0  0  0
    1.3117   -2.4809    8.7198 Cl  0  0  0  0  0  0  0  0  0  0  0  0
    0.7915   -1.1100    6.4001 C   0  0  0  0  0  0  0  0  0  0  0  0
    1.1437   -0.3035    5.3031 C   0  0  0  0  0  0  0  0  0  0  0  0
   -0.1050    0.1283    4.1391 Cl  0  0  0  0  0  0  0  0  0  0  0  0
    2.5222    2.2436    4.0490 C   0  0  0  0  0  0  0  0  0  0  0  0
    1.8408    2.9623    4.7676 O   0  0  0  0  0  0  0  0  0  0  0  0
    3.1326    2.8095    2.9454 N   0  0  0  0  0  0  0  0  0  0  0  0
    3.8065    1.7525    2.3419 C   0  0  0  0  0  0  0  0  0  0  0  0
    4.2828    2.0064    1.2426 O   0  0  0  0  0  0  0  0  0  0  0  0
    5.1820   -0.9645    1.8931 C   0  0  0  0  0  0  0  0  0  0  0  0
    6.2017   -0.1859    1.3034 C   0  0  0  0  0  0  0  0  0  0  0  0
    7.1825   -0.8173    0.5072 C   0  0  0  0  0  0  0  0  0  0  0  0
    7.1978   -2.2180    0.3512 C   0  0  0  0  0  0  0  0  0  0  0  0
    6.2514   -3.0089    1.0262 C   0  0  0  0  0  0  0  0  0  0  0  0
    5.2750   -2.3537    1.7891 C   0  0  0  0  0  0  0  0  0  0  0  0
    1.8462   -3.6050    0.6070 N   0  0  0  0  0  0  0  0  0  0  0  0
    2.6972   -2.7905   -0.2764 C   0  0  0  0  0  0  0  0  0  0  0  0
    1.8752   -2.1432   -1.4120 C   0  0  0  0  0  0  0  0  0  0  0  0
    0.8368   -1.3467   -0.8248 O   0  0  0  0  0  0  0  0  0  0  0  0
    1.2353   -0.0685   -0.2937 C   0  0  0  0  0  0  0  0  0  0  0  0
    0.1152    0.4006    0.6440 C   0  0  0  0  0  0  0  0  0  0  0  0
   -0.9712    0.8870   -0.1569 O   0  0  0  0  0  0  0  0  0  0  0  0
   -2.2831    0.6544    0.3762 C   0  0  0  0  0  0  0  0  0  0  0  0
   -2.7067   -0.7884    0.0055 C   0  0  0  0  0  0  0  0  0  0  0  0
   -3.5313   -0.7750   -1.2135 N   0  0  0  0  0  0  0  0  0  0  0  0
   -3.0500   -0.3259   -2.4360 C   0  0  0  0  0  0  0  0  0  0  0  0
   -1.8017   -0.7265   -2.9633 C   0  0  0  0  0  0  0  0  0  0  0  0
   -1.3377   -0.2175   -4.2030 C   0  0  0  0  0  0  0  0  0  0  0  0
   -2.1115    0.7090   -4.9323 C   0  0  0  0  0  0  0  0  0  0  0  0
   -3.3463    1.0953   -4.3985 C   0  0  0  0  0  0  0  0  0  0  0  0
   -3.8082    0.5771   -3.1909 C   0  0  0  0  0  0  0  0  0  0  0  0
   -5.0271    1.1512   -2.9295 C   0  0  0  0  0  0  0  0  0  0  0  0
   -5.7671    0.9757   -1.9675 O   0  0  0  0  0  0  0  0  0  0  0  0
   -5.3403    2.0404   -3.9609 N   0  0  0  0  0  0  0  0  0  0  0  0
   -6.2950    3.1582   -3.7947 C   0  0  0  0  0  0  0  0  0  0  0  0
   -7.6981    2.7622   -4.2998 C   0  0  0  0  0  0  0  0  0  0  0  0
   -7.7238    2.7767   -5.8439 C   0  0  0  0  0  0  0  0  0  0  0  0
   -7.2460    4.1011   -6.4001 C   0  0  0  0  0  0  0  0  0  0  0  0
   -7.6591    4.5795   -7.4463 O   0  0  0  0  0  0  0  0  0  0  0  0
   -6.3319    4.8676   -5.6649 N   0  0  0  0  0  0  0  0  0  0  0  0
   -5.8153    4.4614   -4.4244 C   0  0  0  0  0  0  0  0  0  0  0  0
   -5.0933    5.2607   -3.8453 O   0  0  0  0  0  0  0  0  0  0  0  0
   -4.2726    1.9940   -4.8753 C   0  0  0  0  0  0  0  0  0  0  0  0
   -4.4034    2.3590   -6.0379 O   0  0  0  0  0  0  0  0  0  0  0  0
    3.6004   -4.7424    3.2469 H   0  0  0  0  0  0  0  0  0  0  0  0
    4.1003   -4.6781    1.5581 H   0  0  0  0  0  0  0  0  0  0  0  0
    2.9232   -2.0304    3.9933 H   0  0  0  0  0  0  0  0  0  0  0  0
    4.4703    0.0953    5.9921 H   0  0  0  0  0  0  0  0  0  0  0  0
    3.8394   -1.3376    7.9260 H   0  0  0  0  0  0  0  0  0  0  0  0
   -0.2357   -1.4440    6.5233 H   0  0  0  0  0  0  0  0  0  0  0  0
    2.7585    3.5972    2.4377 H   0  0  0  0  0  0  0  0  0  0  0  0
    6.2968    0.8759    1.4878 H   0  0  0  0  0  0  0  0  0  0  0  0
    7.9601   -0.2187    0.0434 H   0  0  0  0  0  0  0  0  0  0  0  0
    7.9784   -2.6890   -0.2421 H   0  0  0  0  0  0  0  0  0  0  0  0
    6.3065   -4.0927    0.9913 H   0  0  0  0  0  0  0  0  0  0  0  0
    0.8649   -3.6710    0.3615 H   0  0  0  0  0  0  0  0  0  0  0  0
    3.4898   -3.4170   -0.7056 H   0  0  0  0  0  0  0  0  0  0  0  0
    3.1780   -1.9986    0.3097 H   0  0  0  0  0  0  0  0  0  0  0  0
    1.4333   -2.9321   -2.0356 H   0  0  0  0  0  0  0  0  0  0  0  0
    2.5226   -1.5295   -2.0521 H   0  0  0  0  0  0  0  0  0  0  0  0
    1.3846    0.6644   -1.0982 H   0  0  0  0  0  0  0  0  0  0  0  0
    2.1625   -0.1438    0.2847 H   0  0  0  0  0  0  0  0  0  0  0  0
    0.4897    1.2019    1.2935 H   0  0  0  0  0  0  0  0  0  0  0  0
   -0.1866   -0.4433    1.2779 H   0  0  0  0  0  0  0  0  0  0  0  0
   -2.2832    0.7830    1.4675 H   0  0  0  0  0  0  0  0  0  0  0  0
   -2.9997    1.3742   -0.0446 H   0  0  0  0  0  0  0  0  0  0  0  0
   -1.8219   -1.4249   -0.1307 H   0  0  0  0  0  0  0  0  0  0  0  0
   -3.2948   -1.2074    0.8320 H   0  0  0  0  0  0  0  0  0  0  0  0
   -4.5110   -0.5509   -1.0729 H   0  0  0  0  0  0  0  0  0  0  0  0
   -1.1876   -1.4316   -2.4137 H   0  0  0  0  0  0  0  0  0  0  0  0
   -0.3732   -0.5359   -4.5914 H   0  0  0  0  0  0  0  0  0  0  0  0
   -1.7621    1.1228   -5.8756 H   0  0  0  0  0  0  0  0  0  0  0  0
   -6.3740    3.3535   -2.7153 H   0  0  0  0  0  0  0  0  0  0  0  0
   -8.4352    3.4821   -3.9171 H   0  0  0  0  0  0  0  0  0  0  0  0
   -7.9769    1.7731   -3.9094 H   0  0  0  0  0  0  0  0  0  0  0  0
   -7.0805    1.9796   -6.2358 H   0  0  0  0  0  0  0  0  0  0  0  0
   -8.7374    2.5688   -6.2061 H   0  0  0  0  0  0  0  0  0  0  0  0
   -6.0111    5.7400   -6.0550 H   0  0  0  0  0  0  0  0  0  0  0  0
  1  2  2  0  0  0  0
  2  3  1  0  0  0  0
  2 28  1  0  0  0  0
  3  4  1  0  0  0  0
  3 57  1  0  0  0  0
  3 58  1  0  0  0  0
  4  5  1  0  0  0  0
  4 27  1  0  0  0  0
  5  6  2  0  0  0  0
  5 59  1  0  0  0  0
  6  7  1  0  0  0  0
  6 22  1  0  0  0  0
  7  8  2  0  0  0  0
  7 20  1  0  0  0  0
  8  9  1  0  0  0  0
  8 17  1  0  0  0  0
  9 10  2  0  0  0  0
  9 15  1  0  0  0  0
 10 11  1  0  0  0  0
 10 60  1  0  0  0  0
 11 12  2  0  0  0  0
 11 61  1  0  0  0  0
 12 13  1  0  0  0  0
 12 14  1  0  0  0  0
 14 15  2  0  0  0  0
 14 62  1  0  0  0  0
 15 16  1  0  0  0  0
 17 18  2  0  0  0  0
 17 19  1  0  0  0  0
 19 20  1  0  0  0  0
 19 63  1  0  0  0  0
 20 21  2  0  0  0  0
 22 23  2  0  0  0  0
 22 27  1  0  0  0  0
 23 24  1  0  0  0  0
 23 64  1  0  0  0  0
 24 25  2  0  0  0  0
 24 65  1  0  0  0  0
 25 26  1  0  0  0  0
 25 66  1  0  0  0  0
 26 27  2  0  0  0  0
 26 67  1  0  0  0  0
 28 29  1  0  0  0  0
 28 68  1  0  0  0  0
 29 30  1  0  0  0  0
 29 69  1  0  0  0  0
 29 70  1  0  0  0  0
 30 31  1  0  0  0  0
 30 71  1  0  0  0  0
 30 72  1  0  0  0  0
 31 32  1  0  0  0  0
 32 33  1  0  0  0  0
 32 73  1  0  0  0  0
 32 74  1  0  0  0  0
 33 34  1  0  0  0  0
 33 75  1  0  0  0  0
 33 76  1  0  0  0  0
 34 35  1  0  0  0  0
 35 36  1  0  0  0  0
 35 77  1  0  0  0  0
 35 78  1  0  0  0  0
 36 37  1  0  0  0  0
 36 79  1  0  0  0  0
 36 80  1  0  0  0  0
 37 38  1  0  0  0  0
 37 81  1  0  0  0  0
 38 39  2  0  0  0  0
 38 43  1  0  0  0  0
 39 40  1  0  0  0  0
 39 82  1  0  0  0  0
 40 41  2  0  0  0  0
 40 83  1  0  0  0  0
 41 42  1  0  0  0  0
 41 84  1  0  0  0  0
 42 43  2  0  0  0  0
 42 55  1  0  0  0  0
 43 44  1  0  0  0  0
 44 45  2  0  0  0  0
 44 46  1  0  0  0  0
 46 47  1  0  0  0  0
 46 55  1  0  0  0  0
 47 48  1  0  0  0  0
 47 53  1  0  0  0  0
 47 85  1  0  0  0  0
 48 49  1  0  0  0  0
 48 86  1  0  0  0  0
 48 87  1  0  0  0  0
 49 50  1  0  0  0  0
 49 88  1  0  0  0  0
 49 89  1  0  0  0  0
 50 51  2  0  0  0  0
 50 52  1  0  0  0  0
 52 53  1  0  0  0  0
 52 90  1  0  0  0  0
 53 54  2  0  0  0  0
 55 56  2  0  0  0  0
M  END
$$$$
protac3895RUN2
  chem.cr 07102519423D
protac3895RUN2
 90 96  0  0  0  0  0  0  0  0999 V2000
   -3.1881   -0.7345    0.4303 O   0  0  0  0  0  0  0  0  0  0  0  0
   -2.2334   -1.4741    0.6163 C   0  0  0  0  0  0  0  0  0  0  0  0
   -1.7343   -1.8560    1.9955 C   0  0  0  0  0  0  0  0  0  0  0  0
   -1.2157   -0.7025    2.7565 N   0  0  0  0  0  0  0  0  0  0  0  0
   -2.0135    0.3467    3.2360 C   0  0  0  0  0  0  0  0  0  0  0  0
   -1.2477    1.2640    3.8716 C   0  0  0  0  0  0  0  0  0  0  0  0
   -1.6184    2.5044    4.3196 C   0  0  0  0  0  0  0  0  0  0  0  0
   -2.8822    2.9664    4.4653 C   0  0  0  0  0  0  0  0  0  0  0  0
   -4.0528    2.2563    4.2899 C   0  0  0  0  0  0  0  0  0  0  0  0
   -4.4940    1.4034    5.3189 C   0  0  0  0  0  0  0  0  0  0  0  0
   -5.7284    0.7392    5.2149 C   0  0  0  0  0  0  0  0  0  0  0  0
   -6.5281    0.9304    4.0772 C   0  0  0  0  0  0  0  0  0  0  0  0
   -8.0950    0.1385    3.9663 Cl  0  0  0  0  0  0  0  0  0  0  0  0
   -6.0914    1.7714    3.0404 C   0  0  0  0  0  0  0  0  0  0  0  0
   -4.8575    2.4370    3.1435 C   0  0  0  0  0  0  0  0  0  0  0  0
   -4.3412    3.4948    1.8294 Cl  0  0  0  0  0  0  0  0  0  0  0  0
   -2.9064    4.2329    4.8793 C   0  0  0  0  0  0  0  0  0  0  0  0
   -3.8110    5.0164    5.1374 O   0  0  0  0  0  0  0  0  0  0  0  0
   -1.6032    4.6583    5.0443 N   0  0  0  0  0  0  0  0  0  0  0  0
   -0.8326    3.5647    4.6472 C   0  0  0  0  0  0  0  0  0  0  0  0
    0.3660    3.7957    4.5771 O   0  0  0  0  0  0  0  0  0  0  0  0
    0.0446    0.7073    3.9031 C   0  0  0  0  0  0  0  0  0  0  0  0
    1.1682    1.0131    4.7010 C   0  0  0  0  0  0  0  0  0  0  0  0
    2.3297    0.2209    4.5989 C   0  0  0  0  0  0  0  0  0  0  0  0
    2.3601   -0.9149    3.7633 C   0  0  0  0  0  0  0  0  0  0  0  0
    1.2040   -1.3003    3.0605 C   0  0  0  0  0  0  0  0  0  0  0  0
    0.0690   -0.4825    3.1673 C   0  0  0  0  0  0  0  0  0  0  0  0
   -1.5220   -1.8447   -0.5349 N   0  0  0  0  0  0  0  0  0  0  0  0
   -0.4810   -2.8818   -0.6314 C   0  0  0  0  0  0  0  0  0  0  0  0
   -0.1439   -3.1407   -2.1096 C   0  0  0  0  0  0  0  0  0  0  0  0
    0.8054   -4.2103   -2.1880 O   0  0  0  0  0  0  0  0  0  0  0  0
    1.0650   -4.6442   -3.5327 C   0  0  0  0  0  0  0  0  0  0  0  0
    2.3727   -5.4648   -3.5785 C   0  0  0  0  0  0  0  0  0  0  0  0
    3.4819   -4.5645   -3.7502 O   0  0  0  0  0  0  0  0  0  0  0  0
    3.9327   -3.8926   -2.5671 C   0  0  0  0  0  0  0  0  0  0  0  0
    4.9669   -2.8326   -2.9910 C   0  0  0  0  0  0  0  0  0  0  0  0
    4.4351   -1.4808   -2.7403 N   0  0  0  0  0  0  0  0  0  0  0  0
    4.0703   -0.5557   -3.7094 C   0  0  0  0  0  0  0  0  0  0  0  0
    4.5876   -0.5579   -5.0267 C   0  0  0  0  0  0  0  0  0  0  0  0
    4.1536    0.3966   -5.9801 C   0  0  0  0  0  0  0  0  0  0  0  0
    3.2043    1.3798   -5.6319 C   0  0  0  0  0  0  0  0  0  0  0  0
    2.7103    1.3818   -4.3217 C   0  0  0  0  0  0  0  0  0  0  0  0
    3.1364    0.4398   -3.3874 C   0  0  0  0  0  0  0  0  0  0  0  0
    2.4450    0.6677   -2.2215 C   0  0  0  0  0  0  0  0  0  0  0  0
    2.4324   -0.0130   -1.2010 O   0  0  0  0  0  0  0  0  0  0  0  0
    1.5450    1.7188   -2.4312 N   0  0  0  0  0  0  0  0  0  0  0  0
    0.7197    2.3398   -1.3622 C   0  0  0  0  0  0  0  0  0  0  0  0
   -0.4740    1.4381   -0.9830 C   0  0  0  0  0  0  0  0  0  0  0  0
   -1.5032    1.4408   -2.1330 C   0  0  0  0  0  0  0  0  0  0  0  0
   -1.9173    2.8479   -2.5075 C   0  0  0  0  0  0  0  0  0  0  0  0
   -2.9745    3.1105   -3.0579 O   0  0  0  0  0  0  0  0  0  0  0  0
   -1.0655    3.9212   -2.2099 N   0  0  0  0  0  0  0  0  0  0  0  0
    0.2297    3.7452   -1.6934 C   0  0  0  0  0  0  0  0  0  0  0  0
    0.8598    4.7595   -1.4317 O   0  0  0  0  0  0  0  0  0  0  0  0
    1.7477    2.1837   -3.7460 C   0  0  0  0  0  0  0  0  0  0  0  0
    0.8803    2.7996   -4.3517 O   0  0  0  0  0  0  0  0  0  0  0  0
   -2.5755   -2.2802    2.5550 H   0  0  0  0  0  0  0  0  0  0  0  0
   -0.9653   -2.6292    1.9371 H   0  0  0  0  0  0  0  0  0  0  0  0
   -3.0627    0.3768    2.9500 H   0  0  0  0  0  0  0  0  0  0  0  0
   -3.8883    1.2803    6.2127 H   0  0  0  0  0  0  0  0  0  0  0  0
   -6.0758    0.1011    6.0219 H   0  0  0  0  0  0  0  0  0  0  0  0
   -6.7132    1.9222    2.1619 H   0  0  0  0  0  0  0  0  0  0  0  0
   -1.3107    5.6117    4.8979 H   0  0  0  0  0  0  0  0  0  0  0  0
    1.1519    1.8057    5.4367 H   0  0  0  0  0  0  0  0  0  0  0  0
    3.2028    0.4740    5.1946 H   0  0  0  0  0  0  0  0  0  0  0  0
    3.2593   -1.5221    3.7084 H   0  0  0  0  0  0  0  0  0  0  0  0
    1.1938   -2.2158    2.4800 H   0  0  0  0  0  0  0  0  0  0  0  0
   -1.8054   -1.3804   -1.3868 H   0  0  0  0  0  0  0  0  0  0  0  0
   -0.8417   -3.8136   -0.1790 H   0  0  0  0  0  0  0  0  0  0  0  0
    0.4219   -2.5500   -0.1028 H   0  0  0  0  0  0  0  0  0  0  0  0
    0.2788   -2.2292   -2.5542 H   0  0  0  0  0  0  0  0  0  0  0  0
   -1.0606   -3.4021   -2.6557 H   0  0  0  0  0  0  0  0  0  0  0  0
    1.1660   -3.7882   -4.2138 H   0  0  0  0  0  0  0  0  0  0  0  0
    0.2339   -5.2650   -3.8899 H   0  0  0  0  0  0  0  0  0  0  0  0
    2.3225   -6.1454   -4.4383 H   0  0  0  0  0  0  0  0  0  0  0  0
    2.4859   -6.0767   -2.6734 H   0  0  0  0  0  0  0  0  0  0  0  0
    3.1020   -3.4116   -2.0387 H   0  0  0  0  0  0  0  0  0  0  0  0
    4.3972   -4.6140   -1.8844 H   0  0  0  0  0  0  0  0  0  0  0  0
    5.8854   -2.9755   -2.4085 H   0  0  0  0  0  0  0  0  0  0  0  0
    5.2219   -2.9843   -4.0453 H   0  0  0  0  0  0  0  0  0  0  0  0
    4.0102   -1.3171   -1.8339 H   0  0  0  0  0  0  0  0  0  0  0  0
    5.3295   -1.2898   -5.3249 H   0  0  0  0  0  0  0  0  0  0  0  0
    4.5542    0.3686   -6.9910 H   0  0  0  0  0  0  0  0  0  0  0  0
    2.8573    2.1120   -6.3558 H   0  0  0  0  0  0  0  0  0  0  0  0
    1.3620    2.4304   -0.4748 H   0  0  0  0  0  0  0  0  0  0  0  0
   -0.9455    1.8225   -0.0668 H   0  0  0  0  0  0  0  0  0  0  0  0
   -0.1265    0.4258   -0.7532 H   0  0  0  0  0  0  0  0  0  0  0  0
   -1.0769    0.9571   -3.0187 H   0  0  0  0  0  0  0  0  0  0  0  0
   -2.3921    0.8666   -1.8487 H   0  0  0  0  0  0  0  0  0  0  0  0
   -1.3637    4.8551   -2.4545 H   0  0  0  0  0  0  0  0  0  0  0  0
  1  2  2  0  0  0  0
  2  3  1  0  0  0  0
  2 28  1  0  0  0  0
  3  4  1  0  0  0  0
  3 57  1  0  0  0  0
  3 58  1  0  0  0  0
  4  5  1  0  0  0  0
  4 27  1  0  0  0  0
  5  6  2  0  0  0  0
  5 59  1  0  0  0  0
  6  7  1  0  0  0  0
  6 22  1  0  0  0  0
  7  8  2  0  0  0  0
  7 20  1  0  0  0  0
  8  9  1  0  0  0  0
  8 17  1  0  0  0  0
  9 10  2  0  0  0  0
  9 15  1  0  0  0  0
 10 11  1  0  0  0  0
 10 60  1  0  0  0  0
 11 12  2  0  0  0  0
 11 61  1  0  0  0  0
 12 13  1  0  0  0  0
 12 14  1  0  0  0  0
 14 15  2  0  0  0  0
 14 62  1  0  0  0  0
 15 16  1  0  0  0  0
 17 18  2  0  0  0  0
 17 19  1  0  0  0  0
 19 20  1  0  0  0  0
 19 63  1  0  0  0  0
 20 21  2  0  0  0  0
 22 23  2  0  0  0  0
 22 27  1  0  0  0  0
 23 24  1  0  0  0  0
 23 64  1  0  0  0  0
 24 25  2  0  0  0  0
 24 65  1  0  0  0  0
 25 26  1  0  0  0  0
 25 66  1  0  0  0  0
 26 27  2  0  0  0  0
 26 67  1  0  0  0  0
 28 29  1  0  0  0  0
 28 68  1  0  0  0  0
 29 30  1  0  0  0  0
 29 69  1  0  0  0  0
 29 70  1  0  0  0  0
 30 31  1  0  0  0  0
 30 71  1  0  0  0  0
 30 72  1  0  0  0  0
 31 32  1  0  0  0  0
 32 33  1  0  0  0  0
 32 73  1  0  0  0  0
 32 74  1  0  0  0  0
 33 34  1  0  0  0  0
 33 75  1  0  0  0  0
 33 76  1  0  0  0  0
 34 35  1  0  0  0  0
 35 36  1  0  0  0  0
 35 77  1  0  0  0  0
 35 78  1  0  0  0  0
 36 37  1  0  0  0  0
 36 79  1  0  0  0  0
 36 80  1  0  0  0  0
 37 38  1  0  0  0  0
 37 81  1  0  0  0  0
 38 39  2  0  0  0  0
 38 43  1  0  0  0  0
 39 40  1  0  0  0  0
 39 82  1  0  0  0  0
 40 41  2  0  0  0  0
 40 83  1  0  0  0  0
 41 42  1  0  0  0  0
 41 84  1  0  0  0  0
 42 43  2  0  0  0  0
 42 55  1  0  0  0  0
 43 44  1  0  0  0  0
 44 45  2  0  0  0  0
 44 46  1  0  0  0  0
 46 47  1  0  0  0  0
 46 55  1  0  0  0  0
 47 48  1  0  0  0  0
 47 53  1  0  0  0  0
 47 85  1  0  0  0  0
 48 49  1  0  0  0  0
 48 86  1  0  0  0  0
 48 87  1  0  0  0  0
 49 50  1  0  0  0  0
 49 88  1  0  0  0  0
 49 89  1  0  0  0  0
 50 51  2  0  0  0  0
 50 52  1  0  0  0  0
 52 53  1  0  0  0  0
 52 90  1  0  0  0  0
 53 54  2  0  0  0  0
 55 56  2  0  0  0  0
M  END
$$$$
protac3895RUN2
  chem.cr 07102519423D
protac3895RUN2
 90 96  0  0  0  0  0  0  0  0999 V2000
   -1.2391   -1.2009    0.7020 O   0  0  0  0  0  0  0  0  0  0  0  0
   -1.3458   -1.9224    1.6836 C   0  0  0  0  0  0  0  0  0  0  0  0
   -2.4163   -1.7364    2.7377 C   0  0  0  0  0  0  0  0  0  0  0  0
   -2.1654   -0.6171    3.6689 N   0  0  0  0  0  0  0  0  0  0  0  0
   -3.1368    0.3177    4.0381 C   0  0  0  0  0  0  0  0  0  0  0  0
   -2.6637    1.1413    5.0011 C   0  0  0  0  0  0  0  0  0  0  0  0
   -3.2460    2.2842    5.4857 C   0  0  0  0  0  0  0  0  0  0  0  0
   -4.5145    2.7103    5.2573 C   0  0  0  0  0  0  0  0  0  0  0  0
   -5.4970    2.0762    4.5228 C   0  0  0  0  0  0  0  0  0  0  0  0
   -6.4239    1.2391    5.1747 C   0  0  0  0  0  0  0  0  0  0  0  0
   -7.4694    0.6404    4.4507 C   0  0  0  0  0  0  0  0  0  0  0  0
   -7.5879    0.8733    3.0714 C   0  0  0  0  0  0  0  0  0  0  0  0
   -8.9066    0.1406    2.1690 Cl  0  0  0  0  0  0  0  0  0  0  0  0
   -6.6716    1.7129    2.4158 C   0  0  0  0  0  0  0  0  0  0  0  0
   -5.6337    2.3219    3.1391 C   0  0  0  0  0  0  0  0  0  0  0  0
   -4.4965    3.3690    2.2900 Cl  0  0  0  0  0  0  0  0  0  0  0  0
   -4.7543    3.8888    5.8311 C   0  0  0  0  0  0  0  0  0  0  0  0
   -5.7326    4.6229    5.8611 O   0  0  0  0  0  0  0  0  0  0  0  0
   -3.6137    4.2932    6.4938 N   0  0  0  0  0  0  0  0  0  0  0  0
   -2.6907    3.2855    6.2206 C   0  0  0  0  0  0  0  0  0  0  0  0
   -1.5538    3.5450    6.5908 O   0  0  0  0  0  0  0  0  0  0  0  0
   -1.4027    0.6110    5.3466 C   0  0  0  0  0  0  0  0  0  0  0  0
   -0.5716    0.8152    6.4695 C   0  0  0  0  0  0  0  0  0  0  0  0
    0.6223    0.0741    6.5961 C   0  0  0  0  0  0  0  0  0  0  0  0
    0.9638   -0.9184    5.6547 C   0  0  0  0  0  0  0  0  0  0  0  0
    0.0834   -1.2132    4.6016 C   0  0  0  0  0  0  0  0  0  0  0  0
   -1.0860   -0.4483    4.4890 C   0  0  0  0  0  0  0  0  0  0  0  0
   -0.6671   -3.1537    1.6896 N   0  0  0  0  0  0  0  0  0  0  0  0
    0.5927   -3.3823    0.9589 C   0  0  0  0  0  0  0  0  0  0  0  0
    0.5811   -4.7183    0.2002 C   0  0  0  0  0  0  0  0  0  0  0  0
    1.8923   -4.9055   -0.3435 O   0  0  0  0  0  0  0  0  0  0  0  0
    2.0627   -6.1027   -1.1179 C   0  0  0  0  0  0  0  0  0  0  0  0
    3.5153   -6.1438   -1.6490 C   0  0  0  0  0  0  0  0  0  0  0  0
    3.6186   -5.4233   -2.8929 O   0  0  0  0  0  0  0  0  0  0  0  0
    3.4324   -4.0016   -2.8248 C   0  0  0  0  0  0  0  0  0  0  0  0
    3.7550   -3.4303   -4.2124 C   0  0  0  0  0  0  0  0  0  0  0  0
    3.5398   -1.9775   -4.2094 N   0  0  0  0  0  0  0  0  0  0  0  0
    3.8693   -1.1019   -5.2377 C   0  0  0  0  0  0  0  0  0  0  0  0
    4.4565   -1.5211   -6.4546 C   0  0  0  0  0  0  0  0  0  0  0  0
    4.7617   -0.5848   -7.4739 C   0  0  0  0  0  0  0  0  0  0  0  0
    4.4851    0.7880   -7.2979 C   0  0  0  0  0  0  0  0  0  0  0  0
    3.9062    1.1903   -6.0868 C   0  0  0  0  0  0  0  0  0  0  0  0
    3.6077    0.2639   -5.0872 C   0  0  0  0  0  0  0  0  0  0  0  0
    3.0186    0.9401   -4.0459 C   0  0  0  0  0  0  0  0  0  0  0  0
    2.3632    0.4653   -3.1244 O   0  0  0  0  0  0  0  0  0  0  0  0
    2.9061    2.2851   -4.4097 N   0  0  0  0  0  0  0  0  0  0  0  0
    2.0517    3.2698   -3.7163 C   0  0  0  0  0  0  0  0  0  0  0  0
    0.6914    3.4318   -4.4561 C   0  0  0  0  0  0  0  0  0  0  0  0
    0.4361    4.8845   -4.9239 C   0  0  0  0  0  0  0  0  0  0  0  0
    0.7543    5.8654   -3.8237 C   0  0  0  0  0  0  0  0  0  0  0  0
    0.1039    6.8722   -3.5892 O   0  0  0  0  0  0  0  0  0  0  0  0
    1.9958    5.7218   -3.2029 N   0  0  0  0  0  0  0  0  0  0  0  0
    2.7806    4.5821   -3.4246 C   0  0  0  0  0  0  0  0  0  0  0  0
    3.9244    4.6351   -2.9928 O   0  0  0  0  0  0  0  0  0  0  0  0
    3.5021    2.4394   -5.6686 C   0  0  0  0  0  0  0  0  0  0  0  0
    3.2974    3.4263   -6.3672 O   0  0  0  0  0  0  0  0  0  0  0  0
   -3.3620   -1.5499    2.2186 H   0  0  0  0  0  0  0  0  0  0  0  0
   -2.5347   -2.6509    3.3279 H   0  0  0  0  0  0  0  0  0  0  0  0
   -4.0506    0.3606    3.4608 H   0  0  0  0  0  0  0  0  0  0  0  0
   -6.3444    1.0781    6.2476 H   0  0  0  0  0  0  0  0  0  0  0  0
   -8.1967    0.0135    4.9600 H   0  0  0  0  0  0  0  0  0  0  0  0
   -6.7712    1.9027    1.3504 H   0  0  0  0  0  0  0  0  0  0  0  0
   -3.3393    5.2617    6.5453 H   0  0  0  0  0  0  0  0  0  0  0  0
   -0.8408    1.4836    7.2741 H   0  0  0  0  0  0  0  0  0  0  0  0
    1.2733    0.2500    7.4483 H   0  0  0  0  0  0  0  0  0  0  0  0
    1.8831   -1.4862    5.7726 H   0  0  0  0  0  0  0  0  0  0  0  0
    0.3031   -2.0221    3.9177 H   0  0  0  0  0  0  0  0  0  0  0  0
   -0.9822   -3.8658    2.3354 H   0  0  0  0  0  0  0  0  0  0  0  0
    1.4267   -3.3805    1.6744 H   0  0  0  0  0  0  0  0  0  0  0  0
    0.7681   -2.5673    0.2418 H   0  0  0  0  0  0  0  0  0  0  0  0
   -0.1746   -4.6808   -0.5964 H   0  0  0  0  0  0  0  0  0  0  0  0
    0.3294   -5.5338    0.8899 H   0  0  0  0  0  0  0  0  0  0  0  0
    1.3602   -6.1350   -1.9623 H   0  0  0  0  0  0  0  0  0  0  0  0
    1.8892   -6.9870   -0.4901 H   0  0  0  0  0  0  0  0  0  0  0  0
    3.7930   -7.1917   -1.8183 H   0  0  0  0  0  0  0  0  0  0  0  0
    4.2038   -5.7341   -0.8982 H   0  0  0  0  0  0  0  0  0  0  0  0
    2.3941   -3.7532   -2.5618 H   0  0  0  0  0  0  0  0  0  0  0  0
    4.1020   -3.5566   -2.0768 H   0  0  0  0  0  0  0  0  0  0  0  0
    4.8001   -3.6616   -4.4582 H   0  0  0  0  0  0  0  0  0  0  0  0
    3.1047   -3.9068   -4.9560 H   0  0  0  0  0  0  0  0  0  0  0  0
    3.0940   -1.5562   -3.3984 H   0  0  0  0  0  0  0  0  0  0  0  0
    4.6767   -2.5702   -6.6197 H   0  0  0  0  0  0  0  0  0  0  0  0
    5.2069   -0.9288   -8.4043 H   0  0  0  0  0  0  0  0  0  0  0  0
    4.7072    1.5134   -8.0769 H   0  0  0  0  0  0  0  0  0  0  0  0
    1.8260    2.8475   -2.7275 H   0  0  0  0  0  0  0  0  0  0  0  0
   -0.1096    3.1208   -3.7731 H   0  0  0  0  0  0  0  0  0  0  0  0
    0.6405    2.7502   -5.3162 H   0  0  0  0  0  0  0  0  0  0  0  0
    1.0669    5.1174   -5.7920 H   0  0  0  0  0  0  0  0  0  0  0  0
   -0.6054    5.0095   -5.2488 H   0  0  0  0  0  0  0  0  0  0  0  0
    2.3748    6.4864   -2.6641 H   0  0  0  0  0  0  0  0  0  0  0  0
  1  2  2  0  0  0  0
  2  3  1  0  0  0  0
  2 28  1  0  0  0  0
  3  4  1  0  0  0  0
  3 57  1  0  0  0  0
  3 58  1  0  0  0  0
  4  5  1  0  0  0  0
  4 27  1  0  0  0  0
  5  6  2  0  0  0  0
  5 59  1  0  0  0  0
  6  7  1  0  0  0  0
  6 22  1  0  0  0  0
  7  8  2  0  0  0  0
  7 20  1  0  0  0  0
  8  9  1  0  0  0  0
  8 17  1  0  0  0  0
  9 10  2  0  0  0  0
  9 15  1  0  0  0  0
 10 11  1  0  0  0  0
 10 60  1  0  0  0  0
 11 12  2  0  0  0  0
 11 61  1  0  0  0  0
 12 13  1  0  0  0  0
 12 14  1  0  0  0  0
 14 15  2  0  0  0  0
 14 62  1  0  0  0  0
 15 16  1  0  0  0  0
 17 18  2  0  0  0  0
 17 19  1  0  0  0  0
 19 20  1  0  0  0  0
 19 63  1  0  0  0  0
 20 21  2  0  0  0  0
 22 23  2  0  0  0  0
 22 27  1  0  0  0  0
 23 24  1  0  0  0  0
 23 64  1  0  0  0  0
 24 25  2  0  0  0  0
 24 65  1  0  0  0  0
 25 26  1  0  0  0  0
 25 66  1  0  0  0  0
 26 27  2  0  0  0  0
 26 67  1  0  0  0  0
 28 29  1  0  0  0  0
 28 68  1  0  0  0  0
 29 30  1  0  0  0  0
 29 69  1  0  0  0  0
 29 70  1  0  0  0  0
 30 31  1  0  0  0  0
 30 71  1  0  0  0  0
 30 72  1  0  0  0  0
 31 32  1  0  0  0  0
 32 33  1  0  0  0  0
 32 73  1  0  0  0  0
 32 74  1  0  0  0  0
 33 34  1  0  0  0  0
 33 75  1  0  0  0  0
 33 76  1  0  0  0  0
 34 35  1  0  0  0  0
 35 36  1  0  0  0  0
 35 77  1  0  0  0  0
 35 78  1  0  0  0  0
 36 37  1  0  0  0  0
 36 79  1  0  0  0  0
 36 80  1  0  0  0  0
 37 38  1  0  0  0  0
 37 81  1  0  0  0  0
 38 39  2  0  0  0  0
 38 43  1  0  0  0  0
 39 40  1  0  0  0  0
 39 82  1  0  0  0  0
 40 41  2  0  0  0  0
 40 83  1  0  0  0  0
 41 42  1  0  0  0  0
 41 84  1  0  0  0  0
 42 43  2  0  0  0  0
 42 55  1  0  0  0  0
 43 44  1  0  0  0  0
 44 45  2  0  0  0  0
 44 46  1  0  0  0  0
 46 47  1  0  0  0  0
 46 55  1  0  0  0  0
 47 48  1  0  0  0  0
 47 53  1  0  0  0  0
 47 85  1  0  0  0  0
 48 49  1  0  0  0  0
 48 86  1  0  0  0  0
 48 87  1  0  0  0  0
 49 50  1  0  0  0  0
 49 88  1  0  0  0  0
 49 89  1  0  0  0  0
 50 51  2  0  0  0  0
 50 52  1  0  0  0  0
 52 53  1  0  0  0  0
 52 90  1  0  0  0  0
 53 54  2  0  0  0  0
 55 56  2  0  0  0  0
M  END
$$$$
protac3895RUN2
  chem.cr 07102519423D
protac3895RUN2
 90 96  0  0  0  0  0  0  0  0999 V2000
    1.0326    0.8998    1.0368 O   0  0  0  0  0  0  0  0  0  0  0  0
    0.4364   -0.0367    1.5450 C   0  0  0  0  0  0  0  0  0  0  0  0
   -1.0611   -0.0004    1.8145 C   0  0  0  0  0  0  0  0  0  0  0  0
   -1.4837   -0.3143    3.2011 N   0  0  0  0  0  0  0  0  0  0  0  0
   -0.5727   -0.2105    4.2517 C   0  0  0  0  0  0  0  0  0  0  0  0
   -0.7504   -1.1732    5.1919 C   0  0  0  0  0  0  0  0  0  0  0  0
    0.0050   -1.3458    6.3359 C   0  0  0  0  0  0  0  0  0  0  0  0
    1.0956   -0.6081    6.6886 C   0  0  0  0  0  0  0  0  0  0  0  0
    1.6629    0.4371    5.9881 C   0  0  0  0  0  0  0  0  0  0  0  0
    1.2764    1.7571    6.2945 C   0  0  0  0  0  0  0  0  0  0  0  0
    1.8105    2.8382    5.5730 C   0  0  0  0  0  0  0  0  0  0  0  0
    2.7407    2.6022    4.5483 C   0  0  0  0  0  0  0  0  0  0  0  0
    3.4033    3.9506    3.6362 Cl  0  0  0  0  0  0  0  0  0  0  0  0
    3.1428    1.2903    4.2470 C   0  0  0  0  0  0  0  0  0  0  0  0
    2.6102    0.2068    4.9669 C   0  0  0  0  0  0  0  0  0  0  0  0
    3.1200   -1.4338    4.5651 Cl  0  0  0  0  0  0  0  0  0  0  0  0
    1.6326   -1.0026    7.8417 C   0  0  0  0  0  0  0  0  0  0  0  0
    2.6090   -0.6423    8.4853 O   0  0  0  0  0  0  0  0  0  0  0  0
    0.8673   -2.0348    8.3322 N   0  0  0  0  0  0  0  0  0  0  0  0
   -0.1126   -2.2366    7.3656 C   0  0  0  0  0  0  0  0  0  0  0  0
   -0.8736   -3.1434    7.6485 O   0  0  0  0  0  0  0  0  0  0  0  0
   -1.8613   -1.9183    4.7100 C   0  0  0  0  0  0  0  0  0  0  0  0
   -2.5283   -3.0946    5.1363 C   0  0  0  0  0  0  0  0  0  0  0  0
   -3.6175   -3.6025    4.3960 C   0  0  0  0  0  0  0  0  0  0  0  0
   -4.0556   -2.9744    3.2160 C   0  0  0  0  0  0  0  0  0  0  0  0
   -3.3841   -1.8371    2.7514 C   0  0  0  0  0  0  0  0  0  0  0  0
   -2.3068   -1.3523    3.5049 C   0  0  0  0  0  0  0  0  0  0  0  0
    1.1601   -1.2372    1.6334 N   0  0  0  0  0  0  0  0  0  0  0  0
    0.6475   -2.5512    2.0653 C   0  0  0  0  0  0  0  0  0  0  0  0
   -0.0537   -3.3207    0.9350 C   0  0  0  0  0  0  0  0  0  0  0  0
    0.9022   -3.4831   -0.1236 O   0  0  0  0  0  0  0  0  0  0  0  0
    0.6017   -4.4667   -1.1277 C   0  0  0  0  0  0  0  0  0  0  0  0
   -0.6933   -4.1251   -1.9099 C   0  0  0  0  0  0  0  0  0  0  0  0
   -0.4399   -3.1280   -2.9194 O   0  0  0  0  0  0  0  0  0  0  0  0
   -0.3112   -1.7614   -2.4919 C   0  0  0  0  0  0  0  0  0  0  0  0
    1.1757   -1.3599   -2.5380 C   0  0  0  0  0  0  0  0  0  0  0  0
    1.2859    0.1058   -2.5900 N   0  0  0  0  0  0  0  0  0  0  0  0
    1.9648    0.7606   -3.6084 C   0  0  0  0  0  0  0  0  0  0  0  0
    3.2238    0.3171   -4.0730 C   0  0  0  0  0  0  0  0  0  0  0  0
    3.8750    0.9708   -5.1485 C   0  0  0  0  0  0  0  0  0  0  0  0
    3.2707    2.0716   -5.7918 C   0  0  0  0  0  0  0  0  0  0  0  0
    2.0312    2.5142   -5.3104 C   0  0  0  0  0  0  0  0  0  0  0  0
    1.3997    1.8793   -4.2394 C   0  0  0  0  0  0  0  0  0  0  0  0
    0.1878    2.4984   -4.0341 C   0  0  0  0  0  0  0  0  0  0  0  0
   -0.7474    2.1187   -3.3355 O   0  0  0  0  0  0  0  0  0  0  0  0
    0.0196    3.4846   -5.0163 N   0  0  0  0  0  0  0  0  0  0  0  0
   -1.3043    3.9654   -5.4747 C   0  0  0  0  0  0  0  0  0  0  0  0
   -1.9197    2.9315   -6.4457 C   0  0  0  0  0  0  0  0  0  0  0  0
   -3.2328    3.4645   -7.0548 C   0  0  0  0  0  0  0  0  0  0  0  0
   -3.0403    4.8224   -7.6893 C   0  0  0  0  0  0  0  0  0  0  0  0
   -3.7425    5.2428   -8.5972 O   0  0  0  0  0  0  0  0  0  0  0  0
   -2.1517    5.7251   -7.0966 N   0  0  0  0  0  0  0  0  0  0  0  0
   -1.2750    5.3793   -6.0539 C   0  0  0  0  0  0  0  0  0  0  0  0
   -0.7216    6.3227   -5.5036 O   0  0  0  0  0  0  0  0  0  0  0  0
    1.2080    3.5185   -5.7714 C   0  0  0  0  0  0  0  0  0  0  0  0
    1.3080    4.1270   -6.8308 O   0  0  0  0  0  0  0  0  0  0  0  0
   -1.4251    1.0090    1.5824 H   0  0  0  0  0  0  0  0  0  0  0  0
   -1.5513   -0.6860    1.1163 H   0  0  0  0  0  0  0  0  0  0  0  0
    0.1464    0.5959    4.1755 H   0  0  0  0  0  0  0  0  0  0  0  0
    0.5540    1.9378    7.0862 H   0  0  0  0  0  0  0  0  0  0  0  0
    1.5087    3.8563    5.8086 H   0  0  0  0  0  0  0  0  0  0  0  0
    3.8608    1.1146    3.4509 H   0  0  0  0  0  0  0  0  0  0  0  0
    1.1962   -2.7460    8.9685 H   0  0  0  0  0  0  0  0  0  0  0  0
   -2.2475   -3.6626    5.9998 H   0  0  0  0  0  0  0  0  0  0  0  0
   -4.1302   -4.4945    4.7479 H   0  0  0  0  0  0  0  0  0  0  0  0
   -4.9009   -3.3758    2.6640 H   0  0  0  0  0  0  0  0  0  0  0  0
   -3.6963   -1.3454    1.8349 H   0  0  0  0  0  0  0  0  0  0  0  0
    2.1261   -1.1904    1.3338 H   0  0  0  0  0  0  0  0  0  0  0  0
   -0.0308   -2.4516    2.9153 H   0  0  0  0  0  0  0  0  0  0  0  0
    1.4904   -3.1544    2.4256 H   0  0  0  0  0  0  0  0  0  0  0  0
   -0.9321   -2.7599    0.5950 H   0  0  0  0  0  0  0  0  0  0  0  0
   -0.3898   -4.2937    1.3151 H   0  0  0  0  0  0  0  0  0  0  0  0
    0.4851   -5.4506   -0.6572 H   0  0  0  0  0  0  0  0  0  0  0  0
    1.4335   -4.5469   -1.8388 H   0  0  0  0  0  0  0  0  0  0  0  0
   -1.5049   -3.8183   -1.2382 H   0  0  0  0  0  0  0  0  0  0  0  0
   -1.0279   -5.0454   -2.4074 H   0  0  0  0  0  0  0  0  0  0  0  0
   -0.8689   -1.1208   -3.1890 H   0  0  0  0  0  0  0  0  0  0  0  0
   -0.7232   -1.5987   -1.4883 H   0  0  0  0  0  0  0  0  0  0  0  0
    1.6997   -1.7434   -1.6559 H   0  0  0  0  0  0  0  0  0  0  0  0
    1.6312   -1.8087   -3.4295 H   0  0  0  0  0  0  0  0  0  0  0  0
    0.5107    0.6321   -2.2011 H   0  0  0  0  0  0  0  0  0  0  0  0
    3.7037   -0.5325   -3.5980 H   0  0  0  0  0  0  0  0  0  0  0  0
    4.8428    0.6136   -5.4909 H   0  0  0  0  0  0  0  0  0  0  0  0
    3.7461    2.5643   -6.6364 H   0  0  0  0  0  0  0  0  0  0  0  0
   -1.9475    4.0242   -4.5879 H   0  0  0  0  0  0  0  0  0  0  0  0
   -2.0960    1.9851   -5.9177 H   0  0  0  0  0  0  0  0  0  0  0  0
   -1.2008    2.7226   -7.2508 H   0  0  0  0  0  0  0  0  0  0  0  0
   -3.6001    2.7619   -7.8144 H   0  0  0  0  0  0  0  0  0  0  0  0
   -4.0108    3.5359   -6.2859 H   0  0  0  0  0  0  0  0  0  0  0  0
   -2.1149    6.6658   -7.4589 H   0  0  0  0  0  0  0  0  0  0  0  0
  1  2  2  0  0  0  0
  2  3  1  0  0  0  0
  2 28  1  0  0  0  0
  3  4  1  0  0  0  0
  3 57  1  0  0  0  0
  3 58  1  0  0  0  0
  4  5  1  0  0  0  0
  4 27  1  0  0  0  0
  5  6  2  0  0  0  0
  5 59  1  0  0  0  0
  6  7  1  0  0  0  0
  6 22  1  0  0  0  0
  7  8  2  0  0  0  0
  7 20  1  0  0  0  0
  8  9  1  0  0  0  0
  8 17  1  0  0  0  0
  9 10  2  0  0  0  0
  9 15  1  0  0  0  0
 10 11  1  0  0  0  0
 10 60  1  0  0  0  0
 11 12  2  0  0  0  0
 11 61  1  0  0  0  0
 12 13  1  0  0  0  0
 12 14  1  0  0  0  0
 14 15  2  0  0  0  0
 14 62  1  0  0  0  0
 15 16  1  0  0  0  0
 17 18  2  0  0  0  0
 17 19  1  0  0  0  0
 19 20  1  0  0  0  0
 19 63  1  0  0  0  0
 20 21  2  0  0  0  0
 22 23  2  0  0  0  0
 22 27  1  0  0  0  0
 23 24  1  0  0  0  0
 23 64  1  0  0  0  0
 24 25  2  0  0  0  0
 24 65  1  0  0  0  0
 25 26  1  0  0  0  0
 25 66  1  0  0  0  0
 26 27  2  0  0  0  0
 26 67  1  0  0  0  0
 28 29  1  0  0  0  0
 28 68  1  0  0  0  0
 29 30  1  0  0  0  0
 29 69  1  0  0  0  0
 29 70  1  0  0  0  0
 30 31  1  0  0  0  0
 30 71  1  0  0  0  0
 30 72  1  0  0  0  0
 31 32  1  0  0  0  0
 32 33  1  0  0  0  0
 32 73  1  0  0  0  0
 32 74  1  0  0  0  0
 33 34  1  0  0  0  0
 33 75  1  0  0  0  0
 33 76  1  0  0  0  0
 34 35  1  0  0  0  0
 35 36  1  0  0  0  0
 35 77  1  0  0  0  0
 35 78  1  0  0  0  0
 36 37  1  0  0  0  0
 36 79  1  0  0  0  0
 36 80  1  0  0  0  0
 37 38  1  0  0  0  0
 37 81  1  0  0  0  0
 38 39  2  0  0  0  0
 38 43  1  0  0  0  0
 39 40  1  0  0  0  0
 39 82  1  0  0  0  0
 40 41  2  0  0  0  0
 40 83  1  0  0  0  0
 41 42  1  0  0  0  0
 41 84  1  0  0  0  0
 42 43  2  0  0  0  0
 42 55  1  0  0  0  0
 43 44  1  0  0  0  0
 44 45  2  0  0  0  0
 44 46  1  0  0  0  0
 46 47  1  0  0  0  0
 46 55  1  0  0  0  0
 47 48  1  0  0  0  0
 47 53  1  0  0  0  0
 47 85  1  0  0  0  0
 48 49  1  0  0  0  0
 48 86  1  0  0  0  0
 48 87  1  0  0  0  0
 49 50  1  0  0  0  0
 49 88  1  0  0  0  0
 49 89  1  0  0  0  0
 50 51  2  0  0  0  0
 50 52  1  0  0  0  0
 52 53  1  0  0  0  0
 52 90  1  0  0  0  0
 53 54  2  0  0  0  0
 55 56  2  0  0  0  0
M  END
$$$$
protac3895RUN2
  chem.cr 07102519423D
protac3895RUN2
 90 96  0  0  0  0  0  0  0  0999 V2000
   -0.1846    0.1736    2.1608 O   0  0  0  0  0  0  0  0  0  0  0  0
   -0.5787   -0.9516    2.4224 C   0  0  0  0  0  0  0  0  0  0  0  0
   -1.8704   -1.2201    3.1588 C   0  0  0  0  0  0  0  0  0  0  0  0
   -1.6875   -1.5471    4.5847 N   0  0  0  0  0  0  0  0  0  0  0  0
   -0.8848   -0.7303    5.3913 C   0  0  0  0  0  0  0  0  0  0  0  0
   -1.3062   -0.7335    6.6766 C   0  0  0  0  0  0  0  0  0  0  0  0
   -0.6846   -0.1687    7.7614 C   0  0  0  0  0  0  0  0  0  0  0  0
    0.3757    0.6788    7.7297 C   0  0  0  0  0  0  0  0  0  0  0  0
    1.0016    1.1737    6.6019 C   0  0  0  0  0  0  0  0  0  0  0  0
    0.4111    2.2390    5.8936 C   0  0  0  0  0  0  0  0  0  0  0  0
    1.0127    2.7297    4.7216 C   0  0  0  0  0  0  0  0  0  0  0  0
    2.2125    2.1644    4.2595 C   0  0  0  0  0  0  0  0  0  0  0  0
    2.9584    2.7741    2.7876 Cl  0  0  0  0  0  0  0  0  0  0  0  0
    2.8168    1.1141    4.9685 C   0  0  0  0  0  0  0  0  0  0  0  0
    2.2156    0.6188    6.1381 C   0  0  0  0  0  0  0  0  0  0  0  0
    2.9799   -0.7237    6.9856 Cl  0  0  0  0  0  0  0  0  0  0  0  0
    0.7783    1.0215    8.9529 C   0  0  0  0  0  0  0  0  0  0  0  0
    1.6800    1.7342    9.3768 O   0  0  0  0  0  0  0  0  0  0  0  0
   -0.0507    0.4031    9.8659 N   0  0  0  0  0  0  0  0  0  0  0  0
   -0.9165   -0.3627    9.0875 C   0  0  0  0  0  0  0  0  0  0  0  0
   -1.6310   -1.1169    9.7308 O   0  0  0  0  0  0  0  0  0  0  0  0
   -2.4958   -1.4890    6.6609 C   0  0  0  0  0  0  0  0  0  0  0  0
   -3.5542   -1.6053    7.5893 C   0  0  0  0  0  0  0  0  0  0  0  0
   -4.6819   -2.3902    7.2643 C   0  0  0  0  0  0  0  0  0  0  0  0
   -4.8001   -2.9989    5.9980 C   0  0  0  0  0  0  0  0  0  0  0  0
   -3.8099   -2.7866    5.0242 C   0  0  0  0  0  0  0  0  0  0  0  0
   -2.6917   -2.0205    5.3822 C   0  0  0  0  0  0  0  0  0  0  0  0
   -0.0016   -1.9899    1.6854 N   0  0  0  0  0  0  0  0  0  0  0  0
    0.1112   -3.3874    2.1355 C   0  0  0  0  0  0  0  0  0  0  0  0
    0.1421   -4.3377    0.9221 C   0  0  0  0  0  0  0  0  0  0  0  0
    1.1576   -3.8448    0.0265 O   0  0  0  0  0  0  0  0  0  0  0  0
    1.2251   -4.4363   -1.2825 C   0  0  0  0  0  0  0  0  0  0  0  0
   -0.0585   -4.0872   -2.0743 C   0  0  0  0  0  0  0  0  0  0  0  0
    0.2752   -3.9205   -3.4613 O   0  0  0  0  0  0  0  0  0  0  0  0
    0.6989   -2.6018   -3.8405 C   0  0  0  0  0  0  0  0  0  0  0  0
    1.0627   -2.6650   -5.3354 C   0  0  0  0  0  0  0  0  0  0  0  0
    1.0397   -1.3246   -5.9477 N   0  0  0  0  0  0  0  0  0  0  0  0
    1.9471   -0.2954   -5.7220 C   0  0  0  0  0  0  0  0  0  0  0  0
    3.1289   -0.4518   -4.9585 C   0  0  0  0  0  0  0  0  0  0  0  0
    3.9999    0.6424   -4.7268 C   0  0  0  0  0  0  0  0  0  0  0  0
    3.7030    1.9188   -5.2490 C   0  0  0  0  0  0  0  0  0  0  0  0
    2.5359    2.0585   -6.0090 C   0  0  0  0  0  0  0  0  0  0  0  0
    1.6900    0.9773   -6.2491 C   0  0  0  0  0  0  0  0  0  0  0  0
    0.6394    1.4297   -7.0119 C   0  0  0  0  0  0  0  0  0  0  0  0
   -0.2648    0.7773   -7.5244 O   0  0  0  0  0  0  0  0  0  0  0  0
    0.8099    2.7952   -7.2683 N   0  0  0  0  0  0  0  0  0  0  0  0
   -0.3335    3.6943   -7.5378 C   0  0  0  0  0  0  0  0  0  0  0  0
    0.0061    4.7814   -8.5811 C   0  0  0  0  0  0  0  0  0  0  0  0
   -1.2349    5.6715   -8.8223 C   0  0  0  0  0  0  0  0  0  0  0  0
   -1.8128    6.2106   -7.5302 C   0  0  0  0  0  0  0  0  0  0  0  0
   -2.5123    7.2095   -7.4781 O   0  0  0  0  0  0  0  0  0  0  0  0
   -1.7406    5.4268   -6.3716 N   0  0  0  0  0  0  0  0  0  0  0  0
   -0.9049    4.3060   -6.2613 C   0  0  0  0  0  0  0  0  0  0  0  0
   -0.9132    3.7381   -5.1779 O   0  0  0  0  0  0  0  0  0  0  0  0
    1.9973    3.1708   -6.6162 C   0  0  0  0  0  0  0  0  0  0  0  0
    2.4338    4.3156   -6.6195 O   0  0  0  0  0  0  0  0  0  0  0  0
   -2.4967   -0.3228    3.0935 H   0  0  0  0  0  0  0  0  0  0  0  0
   -2.4082   -2.0338    2.6630 H   0  0  0  0  0  0  0  0  0  0  0  0
   -0.0047   -0.2854    4.9389 H   0  0  0  0  0  0  0  0  0  0  0  0
   -0.5207    2.6732    6.2484 H   0  0  0  0  0  0  0  0  0  0  0  0
    0.5513    3.5448    4.1708 H   0  0  0  0  0  0  0  0  0  0  0  0
    3.7463    0.6817    4.6088 H   0  0  0  0  0  0  0  0  0  0  0  0
    0.2269    0.1538   10.8027 H   0  0  0  0  0  0  0  0  0  0  0  0
   -3.5685   -1.0665    8.5236 H   0  0  0  0  0  0  0  0  0  0  0  0
   -5.4816   -2.5024    7.9912 H   0  0  0  0  0  0  0  0  0  0  0  0
   -5.6833   -3.5851    5.7586 H   0  0  0  0  0  0  0  0  0  0  0  0
   -3.9259   -3.1872    4.0220 H   0  0  0  0  0  0  0  0  0  0  0  0
    0.6038   -1.7093    0.9209 H   0  0  0  0  0  0  0  0  0  0  0  0
   -0.7181   -3.6547    2.8020 H   0  0  0  0  0  0  0  0  0  0  0  0
    1.0455   -3.4990    2.7028 H   0  0  0  0  0  0  0  0  0  0  0  0
   -0.8474   -4.3347    0.4469 H   0  0  0  0  0  0  0  0  0  0  0  0
    0.3676   -5.3616    1.2491 H   0  0  0  0  0  0  0  0  0  0  0  0
    1.3378   -5.5264   -1.2189 H   0  0  0  0  0  0  0  0  0  0  0  0
    2.1031   -4.0429   -1.8119 H   0  0  0  0  0  0  0  0  0  0  0  0
   -0.5092   -3.1681   -1.6752 H   0  0  0  0  0  0  0  0  0  0  0  0
   -0.7858   -4.8998   -1.9560 H   0  0  0  0  0  0  0  0  0  0  0  0
   -0.1209   -1.8843   -3.6906 H   0  0  0  0  0  0  0  0  0  0  0  0
    1.5626   -2.2660   -3.2522 H   0  0  0  0  0  0  0  0  0  0  0  0
    2.0468   -3.1336   -5.4607 H   0  0  0  0  0  0  0  0  0  0  0  0
    0.3247   -3.2982   -5.8479 H   0  0  0  0  0  0  0  0  0  0  0  0
    0.2393   -1.0756   -6.5220 H   0  0  0  0  0  0  0  0  0  0  0  0
    3.3801   -1.4179   -4.5352 H   0  0  0  0  0  0  0  0  0  0  0  0
    4.8996    0.5036   -4.1340 H   0  0  0  0  0  0  0  0  0  0  0  0
    4.3542    2.7706   -5.0687 H   0  0  0  0  0  0  0  0  0  0  0  0
   -1.1338    3.0744   -7.9654 H   0  0  0  0  0  0  0  0  0  0  0  0
    0.3468    4.3173   -9.5166 H   0  0  0  0  0  0  0  0  0  0  0  0
    0.8279    5.4082   -8.2128 H   0  0  0  0  0  0  0  0  0  0  0  0
   -0.9726    6.5148   -9.4754 H   0  0  0  0  0  0  0  0  0  0  0  0
   -2.0120    5.1030   -9.3486 H   0  0  0  0  0  0  0  0  0  0  0  0
   -2.2159    5.7496   -5.5411 H   0  0  0  0  0  0  0  0  0  0  0  0
  1  2  2  0  0  0  0
  2  3  1  0  0  0  0
  2 28  1  0  0  0  0
  3  4  1  0  0  0  0
  3 57  1  0  0  0  0
  3 58  1  0  0  0  0
  4  5  1  0  0  0  0
  4 27  1  0  0  0  0
  5  6  2  0  0  0  0
  5 59  1  0  0  0  0
  6  7  1  0  0  0  0
  6 22  1  0  0  0  0
  7  8  2  0  0  0  0
  7 20  1  0  0  0  0
  8  9  1  0  0  0  0
  8 17  1  0  0  0  0
  9 10  2  0  0  0  0
  9 15  1  0  0  0  0
 10 11  1  0  0  0  0
 10 60  1  0  0  0  0
 11 12  2  0  0  0  0
 11 61  1  0  0  0  0
 12 13  1  0  0  0  0
 12 14  1  0  0  0  0
 14 15  2  0  0  0  0
 14 62  1  0  0  0  0
 15 16  1  0  0  0  0
 17 18  2  0  0  0  0
 17 19  1  0  0  0  0
 19 20  1  0  0  0  0
 19 63  1  0  0  0  0
 20 21  2  0  0  0  0
 22 23  2  0  0  0  0
 22 27  1  0  0  0  0
 23 24  1  0  0  0  0
 23 64  1  0  0  0  0
 24 25  2  0  0  0  0
 24 65  1  0  0  0  0
 25 26  1  0  0  0  0
 25 66  1  0  0  0  0
 26 27  2  0  0  0  0
 26 67  1  0  0  0  0
 28 29  1  0  0  0  0
 28 68  1  0  0  0  0
 29 30  1  0  0  0  0
 29 69  1  0  0  0  0
 29 70  1  0  0  0  0
 30 31  1  0  0  0  0
 30 71  1  0  0  0  0
 30 72  1  0  0  0  0
 31 32  1  0  0  0  0
 32 33  1  0  0  0  0
 32 73  1  0  0  0  0
 32 74  1  0  0  0  0
 33 34  1  0  0  0  0
 33 75  1  0  0  0  0
 33 76  1  0  0  0  0
 34 35  1  0  0  0  0
 35 36  1  0  0  0  0
 35 77  1  0  0  0  0
 35 78  1  0  0  0  0
 36 37  1  0  0  0  0
 36 79  1  0  0  0  0
 36 80  1  0  0  0  0
 37 38  1  0  0  0  0
 37 81  1  0  0  0  0
 38 39  2  0  0  0  0
 38 43  1  0  0  0  0
 39 40  1  0  0  0  0
 39 82  1  0  0  0  0
 40 41  2  0  0  0  0
 40 83  1  0  0  0  0
 41 42  1  0  0  0  0
 41 84  1  0  0  0  0
 42 43  2  0  0  0  0
 42 55  1  0  0  0  0
 43 44  1  0  0  0  0
 44 45  2  0  0  0  0
 44 46  1  0  0  0  0
 46 47  1  0  0  0  0
 46 55  1  0  0  0  0
 47 48  1  0  0  0  0
 47 53  1  0  0  0  0
 47 85  1  0  0  0  0
 48 49  1  0  0  0  0
 48 86  1  0  0  0  0
 48 87  1  0  0  0  0
 49 50  1  0  0  0  0
 49 88  1  0  0  0  0
 49 89  1  0  0  0  0
 50 51  2  0  0  0  0
 50 52  1  0  0  0  0
 52 53  1  0  0  0  0
 52 90  1  0  0  0  0
 53 54  2  0  0  0  0
 55 56  2  0  0  0  0
M  END
$$$$
protac3895RUN2
  chem.cr 07102519423D
protac3895RUN2
 90 96  0  0  0  0  0  0  0  0999 V2000
   -2.5535    0.9542    1.9801 O   0  0  0  0  0  0  0  0  0  0  0  0
   -2.5300   -0.2694    1.9606 C   0  0  0  0  0  0  0  0  0  0  0  0
   -3.3249   -1.1320    2.9130 C   0  0  0  0  0  0  0  0  0  0  0  0
   -2.9110   -1.0394    4.3304 N   0  0  0  0  0  0  0  0  0  0  0  0
   -1.7495   -0.4152    4.8058 C   0  0  0  0  0  0  0  0  0  0  0  0
   -1.6611   -0.5440    6.1482 C   0  0  0  0  0  0  0  0  0  0  0  0
   -0.7780    0.0756    6.9901 C   0  0  0  0  0  0  0  0  0  0  0  0
    0.3416    0.7619    6.6379 C   0  0  0  0  0  0  0  0  0  0  0  0
    0.8733    0.9293    5.3716 C   0  0  0  0  0  0  0  0  0  0  0  0
    0.6405    2.1282    4.6669 C   0  0  0  0  0  0  0  0  0  0  0  0
    1.2654    2.3573    3.4274 C   0  0  0  0  0  0  0  0  0  0  0  0
    2.1525    1.4054    2.9011 C   0  0  0  0  0  0  0  0  0  0  0  0
    2.9490    1.7006    1.3591 Cl  0  0  0  0  0  0  0  0  0  0  0  0
    2.4009    0.2141    3.6025 C   0  0  0  0  0  0  0  0  0  0  0  0
    1.7544   -0.0312    4.8254 C   0  0  0  0  0  0  0  0  0  0  0  0
    2.0861   -1.5349    5.6796 Cl  0  0  0  0  0  0  0  0  0  0  0  0
    0.9589    1.2773    7.7007 C   0  0  0  0  0  0  0  0  0  0  0  0
    1.9687    1.9616    7.8360 O   0  0  0  0  0  0  0  0  0  0  0  0
    0.2502    0.9177    8.8295 N   0  0  0  0  0  0  0  0  0  0  0  0
   -0.8460    0.2150    8.3388 C   0  0  0  0  0  0  0  0  0  0  0  0
   -1.6886   -0.0476    9.1885 O   0  0  0  0  0  0  0  0  0  0  0  0
   -2.7291   -1.3950    6.5090 C   0  0  0  0  0  0  0  0  0  0  0  0
   -2.9815   -2.1505    7.6734 C   0  0  0  0  0  0  0  0  0  0  0  0
   -4.1183   -2.9845    7.7296 C   0  0  0  0  0  0  0  0  0  0  0  0
   -4.9689   -3.1259    6.6140 C   0  0  0  0  0  0  0  0  0  0  0  0
   -4.6555   -2.4767    5.4048 C   0  0  0  0  0  0  0  0  0  0  0  0
   -3.5265   -1.6440    5.3876 C   0  0  0  0  0  0  0  0  0  0  0  0
   -1.4821   -0.9069    1.2868 N   0  0  0  0  0  0  0  0  0  0  0  0
   -0.1269   -0.3444    1.2426 C   0  0  0  0  0  0  0  0  0  0  0  0
    0.7846   -1.1451    0.2989 C   0  0  0  0  0  0  0  0  0  0  0  0
    0.6357   -0.5853   -1.0119 O   0  0  0  0  0  0  0  0  0  0  0  0
    0.9508   -1.4615   -2.1033 C   0  0  0  0  0  0  0  0  0  0  0  0
   -0.2977   -2.3322   -2.3794 C   0  0  0  0  0  0  0  0  0  0  0  0
    0.0657   -3.5357   -3.0867 O   0  0  0  0  0  0  0  0  0  0  0  0
    0.4299   -3.3794   -4.4671 C   0  0  0  0  0  0  0  0  0  0  0  0
    1.9666   -3.4479   -4.5881 C   0  0  0  0  0  0  0  0  0  0  0  0
    2.4205   -2.4099   -5.5217 N   0  0  0  0  0  0  0  0  0  0  0  0
    2.9758   -1.2337   -5.0456 C   0  0  0  0  0  0  0  0  0  0  0  0
    4.0836   -1.2249   -4.1700 C   0  0  0  0  0  0  0  0  0  0  0  0
    4.6138   -0.0069   -3.6742 C   0  0  0  0  0  0  0  0  0  0  0  0
    4.0351    1.2250   -4.0471 C   0  0  0  0  0  0  0  0  0  0  0  0
    2.9317    1.1986   -4.9072 C   0  0  0  0  0  0  0  0  0  0  0  0
    2.4192    0.0010   -5.3975 C   0  0  0  0  0  0  0  0  0  0  0  0
    1.3160    0.2971   -6.1643 C   0  0  0  0  0  0  0  0  0  0  0  0
    0.5634   -0.4648   -6.7608 O   0  0  0  0  0  0  0  0  0  0  0  0
    1.1258    1.6817   -6.1697 N   0  0  0  0  0  0  0  0  0  0  0  0
   -0.1841    2.3348   -6.3532 C   0  0  0  0  0  0  0  0  0  0  0  0
   -0.1359    3.2825   -7.5785 C   0  0  0  0  0  0  0  0  0  0  0  0
   -1.2736    4.3236   -7.5117 C   0  0  0  0  0  0  0  0  0  0  0  0
   -1.1825    5.0998   -6.2243 C   0  0  0  0  0  0  0  0  0  0  0  0
   -1.4700    6.2844   -6.1189 O   0  0  0  0  0  0  0  0  0  0  0  0
   -0.9595    4.3775   -5.0480 N   0  0  0  0  0  0  0  0  0  0  0  0
   -0.6484    3.0099   -5.0623 C   0  0  0  0  0  0  0  0  0  0  0  0
   -0.7944    2.4137   -4.0036 O   0  0  0  0  0  0  0  0  0  0  0  0
    2.1526    2.2271   -5.3834 C   0  0  0  0  0  0  0  0  0  0  0  0
    2.3973    3.4264   -5.3716 O   0  0  0  0  0  0  0  0  0  0  0  0
   -4.3741   -0.8311    2.8488 H   0  0  0  0  0  0  0  0  0  0  0  0
   -3.2681   -2.1826    2.6117 H   0  0  0  0  0  0  0  0  0  0  0  0
   -1.1590    0.1881    4.1227 H   0  0  0  0  0  0  0  0  0  0  0  0
   -0.0135    2.8865    5.0911 H   0  0  0  0  0  0  0  0  0  0  0  0
    1.0810    3.2827    2.8869 H   0  0  0  0  0  0  0  0  0  0  0  0
    3.0922   -0.5193    3.1980 H   0  0  0  0  0  0  0  0  0  0  0  0
    0.2274    1.4590    9.6775 H   0  0  0  0  0  0  0  0  0  0  0  0
   -2.3023   -2.1616    8.5144 H   0  0  0  0  0  0  0  0  0  0  0  0
   -4.3261   -3.5427    8.6384 H   0  0  0  0  0  0  0  0  0  0  0  0
   -5.8348   -3.7820    6.6725 H   0  0  0  0  0  0  0  0  0  0  0  0
   -5.2563   -2.6370    4.5161 H   0  0  0  0  0  0  0  0  0  0  0  0
   -1.6162   -1.8554    0.9683 H   0  0  0  0  0  0  0  0  0  0  0  0
    0.2859   -0.3682    2.2576 H   0  0  0  0  0  0  0  0  0  0  0  0
   -0.1691    0.7047    0.9137 H   0  0  0  0  0  0  0  0  0  0  0  0
    0.5163   -2.2089    0.3331 H   0  0  0  0  0  0  0  0  0  0  0  0
    1.8283   -1.0536    0.6229 H   0  0  0  0  0  0  0  0  0  0  0  0
    1.8174   -2.0890   -1.8618 H   0  0  0  0  0  0  0  0  0  0  0  0
    1.1876   -0.8715   -2.9963 H   0  0  0  0  0  0  0  0  0  0  0  0
   -1.0247   -1.7447   -2.9541 H   0  0  0  0  0  0  0  0  0  0  0  0
   -0.7771   -2.6001   -1.4309 H   0  0  0  0  0  0  0  0  0  0  0  0
   -0.0123   -4.1821   -5.0707 H   0  0  0  0  0  0  0  0  0  0  0  0
    0.0505   -2.4268   -4.8634 H   0  0  0  0  0  0  0  0  0  0  0  0
    2.4269   -3.3154   -3.6017 H   0  0  0  0  0  0  0  0  0  0  0  0
    2.2626   -4.4392   -4.9546 H   0  0  0  0  0  0  0  0  0  0  0  0
    1.8073   -2.2605   -6.3209 H   0  0  0  0  0  0  0  0  0  0  0  0
    4.5449   -2.1627   -3.8794 H   0  0  0  0  0  0  0  0  0  0  0  0
    5.4732   -0.0179   -3.0098 H   0  0  0  0  0  0  0  0  0  0  0  0
    4.4193    2.1722   -3.6708 H   0  0  0  0  0  0  0  0  0  0  0  0
   -0.9261    1.5545   -6.5654 H   0  0  0  0  0  0  0  0  0  0  0  0
   -0.1890    2.6965   -8.5064 H   0  0  0  0  0  0  0  0  0  0  0  0
    0.8298    3.8101   -7.5904 H   0  0  0  0  0  0  0  0  0  0  0  0
   -1.2132    5.0113   -8.3627 H   0  0  0  0  0  0  0  0  0  0  0  0
   -2.2506    3.8311   -7.5664 H   0  0  0  0  0  0  0  0  0  0  0  0
   -1.0742    4.8409   -4.1600 H   0  0  0  0  0  0  0  0  0  0  0  0
  1  2  2  0  0  0  0
  2  3  1  0  0  0  0
  2 28  1  0  0  0  0
  3  4  1  0  0  0  0
  3 57  1  0  0  0  0
  3 58  1  0  0  0  0
  4  5  1  0  0  0  0
  4 27  1  0  0  0  0
  5  6  2  0  0  0  0
  5 59  1  0  0  0  0
  6  7  1  0  0  0  0
  6 22  1  0  0  0  0
  7  8  2  0  0  0  0
  7 20  1  0  0  0  0
  8  9  1  0  0  0  0
  8 17  1  0  0  0  0
  9 10  2  0  0  0  0
  9 15  1  0  0  0  0
 10 11  1  0  0  0  0
 10 60  1  0  0  0  0
 11 12  2  0  0  0  0
 11 61  1  0  0  0  0
 12 13  1  0  0  0  0
 12 14  1  0  0  0  0
 14 15  2  0  0  0  0
 14 62  1  0  0  0  0
 15 16  1  0  0  0  0
 17 18  2  0  0  0  0
 17 19  1  0  0  0  0
 19 20  1  0  0  0  0
 19 63  1  0  0  0  0
 20 21  2  0  0  0  0
 22 23  2  0  0  0  0
 22 27  1  0  0  0  0
 23 24  1  0  0  0  0
 23 64  1  0  0  0  0
 24 25  2  0  0  0  0
 24 65  1  0  0  0  0
 25 26  1  0  0  0  0
 25 66  1  0  0  0  0
 26 27  2  0  0  0  0
 26 67  1  0  0  0  0
 28 29  1  0  0  0  0
 28 68  1  0  0  0  0
 29 30  1  0  0  0  0
 29 69  1  0  0  0  0
 29 70  1  0  0  0  0
 30 31  1  0  0  0  0
 30 71  1  0  0  0  0
 30 72  1  0  0  0  0
 31 32  1  0  0  0  0
 32 33  1  0  0  0  0
 32 73  1  0  0  0  0
 32 74  1  0  0  0  0
 33 34  1  0  0  0  0
 33 75  1  0  0  0  0
 33 76  1  0  0  0  0
 34 35  1  0  0  0  0
 35 36  1  0  0  0  0
 35 77  1  0  0  0  0
 35 78  1  0  0  0  0
 36 37  1  0  0  0  0
 36 79  1  0  0  0  0
 36 80  1  0  0  0  0
 37 38  1  0  0  0  0
 37 81  1  0  0  0  0
 38 39  2  0  0  0  0
 38 43  1  0  0  0  0
 39 40  1  0  0  0  0
 39 82  1  0  0  0  0
 40 41  2  0  0  0  0
 40 83  1  0  0  0  0
 41 42  1  0  0  0  0
 41 84  1  0  0  0  0
 42 43  2  0  0  0  0
 42 55  1  0  0  0  0
 43 44  1  0  0  0  0
 44 45  2  0  0  0  0
 44 46  1  0  0  0  0
 46 47  1  0  0  0  0
 46 55  1  0  0  0  0
 47 48  1  0  0  0  0
 47 53  1  0  0  0  0
 47 85  1  0  0  0  0
 48 49  1  0  0  0  0
 48 86  1  0  0  0  0
 48 87  1  0  0  0  0
 49 50  1  0  0  0  0
 49 88  1  0  0  0  0
 49 89  1  0  0  0  0
 50 51  2  0  0  0  0
 50 52  1  0  0  0  0
 52 53  1  0  0  0  0
 52 90  1  0  0  0  0
 53 54  2  0  0  0  0
 55 56  2  0  0  0  0
M  END
$$$$
protac3895RUN2
  chem.cr 07102519423D
protac3895RUN2
 90 96  0  0  0  0  0  0  0  0999 V2000
   -5.3782   -1.0283    1.3625 O   0  0  0  0  0  0  0  0  0  0  0  0
   -4.2635   -0.5350    1.3001 C   0  0  0  0  0  0  0  0  0  0  0  0
   -3.6160    0.2213    2.4539 C   0  0  0  0  0  0  0  0  0  0  0  0
   -4.0856    1.6107    2.6347 N   0  0  0  0  0  0  0  0  0  0  0  0
   -4.7953    2.2701    1.6284 C   0  0  0  0  0  0  0  0  0  0  0  0
   -5.7365    3.1000    2.1377 C   0  0  0  0  0  0  0  0  0  0  0  0
   -6.7262    3.7540    1.4410 C   0  0  0  0  0  0  0  0  0  0  0  0
   -6.8439    3.8130    0.0863 C   0  0  0  0  0  0  0  0  0  0  0  0
   -5.9919    3.2509   -0.8438 C   0  0  0  0  0  0  0  0  0  0  0  0
   -6.2834    1.9715   -1.3592 C   0  0  0  0  0  0  0  0  0  0  0  0
   -5.3952    1.3486   -2.2521 C   0  0  0  0  0  0  0  0  0  0  0  0
   -4.2186    2.0064   -2.6436 C   0  0  0  0  0  0  0  0  0  0  0  0
   -3.1067    1.2146   -3.7540 Cl  0  0  0  0  0  0  0  0  0  0  0  0
   -3.9330    3.2927   -2.1549 C   0  0  0  0  0  0  0  0  0  0  0  0
   -4.8165    3.9159   -1.2556 C   0  0  0  0  0  0  0  0  0  0  0  0
   -4.4253    5.5185   -0.6352 Cl  0  0  0  0  0  0  0  0  0  0  0  0
   -7.9182    4.5003   -0.2982 C   0  0  0  0  0  0  0  0  0  0  0  0
   -8.3821    4.7967   -1.3923 O   0  0  0  0  0  0  0  0  0  0  0  0
   -8.5884    4.9012    0.8370 N   0  0  0  0  0  0  0  0  0  0  0  0
   -7.8176    4.4305    1.8964 C   0  0  0  0  0  0  0  0  0  0  0  0
   -8.3051    4.6513    2.9942 O   0  0  0  0  0  0  0  0  0  0  0  0
   -5.5221    3.0618    3.5327 C   0  0  0  0  0  0  0  0  0  0  0  0
   -5.9563    3.8873    4.5935 C   0  0  0  0  0  0  0  0  0  0  0  0
   -5.5253    3.6184    5.9101 C   0  0  0  0  0  0  0  0  0  0  0  0
   -4.6054    2.5843    6.1772 C   0  0  0  0  0  0  0  0  0  0  0  0
   -4.0742    1.8347    5.1153 C   0  0  0  0  0  0  0  0  0  0  0  0
   -4.5430    2.1024    3.8230 C   0  0  0  0  0  0  0  0  0  0  0  0
   -3.5905   -0.6977    0.0794 N   0  0  0  0  0  0  0  0  0  0  0  0
   -2.1730   -0.3798   -0.1601 C   0  0  0  0  0  0  0  0  0  0  0  0
   -1.2383   -1.3611    0.5737 C   0  0  0  0  0  0  0  0  0  0  0  0
    0.0047   -0.6831    0.7789 O   0  0  0  0  0  0  0  0  0  0  0  0
    0.6981   -1.0539    1.9764 C   0  0  0  0  0  0  0  0  0  0  0  0
    2.0566   -0.3218    1.9876 C   0  0  0  0  0  0  0  0  0  0  0  0
    3.0740   -1.1319    1.3707 O   0  0  0  0  0  0  0  0  0  0  0  0
    3.4388   -2.3344    2.0671 C   0  0  0  0  0  0  0  0  0  0  0  0
    4.9696   -2.4614    1.9962 C   0  0  0  0  0  0  0  0  0  0  0  0
    5.4026   -2.7236    0.6170 N   0  0  0  0  0  0  0  0  0  0  0  0
    6.7036   -2.6034    0.1440 C   0  0  0  0  0  0  0  0  0  0  0  0
    7.8118   -2.3329    0.9829 C   0  0  0  0  0  0  0  0  0  0  0  0
    9.1149   -2.1812    0.4447 C   0  0  0  0  0  0  0  0  0  0  0  0
    9.3371   -2.2908   -0.9430 C   0  0  0  0  0  0  0  0  0  0  0  0
    8.2349   -2.5688   -1.7615 C   0  0  0  0  0  0  0  0  0  0  0  0
    6.9566   -2.7287   -1.2269 C   0  0  0  0  0  0  0  0  0  0  0  0
    6.0901   -2.9669   -2.2661 C   0  0  0  0  0  0  0  0  0  0  0  0
    4.9217   -3.3287   -2.1997 O   0  0  0  0  0  0  0  0  0  0  0  0
    6.8149   -2.9241   -3.4648 N   0  0  0  0  0  0  0  0  0  0  0  0
    6.2639   -2.8353   -4.8339 C   0  0  0  0  0  0  0  0  0  0  0  0
    5.7545   -1.4083   -5.1470 C   0  0  0  0  0  0  0  0  0  0  0  0
    4.3525   -1.1717   -4.5383 C   0  0  0  0  0  0  0  0  0  0  0  0
    3.3783   -2.2777   -4.8859 C   0  0  0  0  0  0  0  0  0  0  0  0
    2.1738   -2.1009   -4.9843 O   0  0  0  0  0  0  0  0  0  0  0  0
    3.8631   -3.5502   -5.2073 N   0  0  0  0  0  0  0  0  0  0  0  0
    5.2182   -3.9043   -5.1240 C   0  0  0  0  0  0  0  0  0  0  0  0
    5.5085   -5.0235   -5.5258 O   0  0  0  0  0  0  0  0  0  0  0  0
    8.1564   -2.7031   -3.1295 C   0  0  0  0  0  0  0  0  0  0  0  0
    8.9792   -2.3429   -3.9654 O   0  0  0  0  0  0  0  0  0  0  0  0
   -3.8440   -0.3384    3.3684 H   0  0  0  0  0  0  0  0  0  0  0  0
   -2.5277    0.2488    2.3533 H   0  0  0  0  0  0  0  0  0  0  0  0
   -4.5989    1.9669    0.6084 H   0  0  0  0  0  0  0  0  0  0  0  0
   -7.1873    1.4557   -1.0430 H   0  0  0  0  0  0  0  0  0  0  0  0
   -5.6195    0.3574   -2.6362 H   0  0  0  0  0  0  0  0  0  0  0  0
   -3.0289    3.8049   -2.4703 H   0  0  0  0  0  0  0  0  0  0  0  0
   -9.2726    5.6384    0.8878 H   0  0  0  0  0  0  0  0  0  0  0  0
   -6.5689    4.7610    4.4403 H   0  0  0  0  0  0  0  0  0  0  0  0
   -5.8894    4.2360    6.7267 H   0  0  0  0  0  0  0  0  0  0  0  0
   -4.2715    2.4012    7.1956 H   0  0  0  0  0  0  0  0  0  0  0  0
   -3.3096    1.0846    5.2919 H   0  0  0  0  0  0  0  0  0  0  0  0
   -4.1139   -1.1669   -0.6515 H   0  0  0  0  0  0  0  0  0  0  0  0
   -1.9684    0.6502    0.1677 H   0  0  0  0  0  0  0  0  0  0  0  0
   -1.9652   -0.4275   -1.2383 H   0  0  0  0  0  0  0  0  0  0  0  0
   -1.0969   -2.2750   -0.0176 H   0  0  0  0  0  0  0  0  0  0  0  0
   -1.6833   -1.6556    1.5323 H   0  0  0  0  0  0  0  0  0  0  0  0
    0.8319   -2.1412    2.0369 H   0  0  0  0  0  0  0  0  0  0  0  0
    0.1244   -0.7305    2.8525 H   0  0  0  0  0  0  0  0  0  0  0  0
    2.3350   -0.0914    3.0231 H   0  0  0  0  0  0  0  0  0  0  0  0
    1.9558    0.6323    1.4520 H   0  0  0  0  0  0  0  0  0  0  0  0
    3.1372   -2.2885    3.1214 H   0  0  0  0  0  0  0  0  0  0  0  0
    2.9595   -3.2107    1.6083 H   0  0  0  0  0  0  0  0  0  0  0  0
    5.4155   -1.5244    2.3552 H   0  0  0  0  0  0  0  0  0  0  0  0
    5.2978   -3.2786    2.6512 H   0  0  0  0  0  0  0  0  0  0  0  0
    4.6858   -2.8838   -0.0854 H   0  0  0  0  0  0  0  0  0  0  0  0
    7.6725   -2.2294    2.0538 H   0  0  0  0  0  0  0  0  0  0  0  0
    9.9510   -1.9688    1.1067 H   0  0  0  0  0  0  0  0  0  0  0  0
   10.3287   -2.1643   -1.3705 H   0  0  0  0  0  0  0  0  0  0  0  0
    7.0963   -3.0427   -5.5197 H   0  0  0  0  0  0  0  0  0  0  0  0
    5.6955   -1.2865   -6.2369 H   0  0  0  0  0  0  0  0  0  0  0  0
    6.4702   -0.6591   -4.7804 H   0  0  0  0  0  0  0  0  0  0  0  0
    4.4197   -1.0913   -3.4479 H   0  0  0  0  0  0  0  0  0  0  0  0
    3.9499   -0.2126   -4.8877 H   0  0  0  0  0  0  0  0  0  0  0  0
    3.1991   -4.2715   -5.4405 H   0  0  0  0  0  0  0  0  0  0  0  0
  1  2  2  0  0  0  0
  2  3  1  0  0  0  0
  2 28  1  0  0  0  0
  3  4  1  0  0  0  0
  3 57  1  0  0  0  0
  3 58  1  0  0  0  0
  4  5  1  0  0  0  0
  4 27  1  0  0  0  0
  5  6  2  0  0  0  0
  5 59  1  0  0  0  0
  6  7  1  0  0  0  0
  6 22  1  0  0  0  0
  7  8  2  0  0  0  0
  7 20  1  0  0  0  0
  8  9  1  0  0  0  0
  8 17  1  0  0  0  0
  9 10  2  0  0  0  0
  9 15  1  0  0  0  0
 10 11  1  0  0  0  0
 10 60  1  0  0  0  0
 11 12  2  0  0  0  0
 11 61  1  0  0  0  0
 12 13  1  0  0  0  0
 12 14  1  0  0  0  0
 14 15  2  0  0  0  0
 14 62  1  0  0  0  0
 15 16  1  0  0  0  0
 17 18  2  0  0  0  0
 17 19  1  0  0  0  0
 19 20  1  0  0  0  0
 19 63  1  0  0  0  0
 20 21  2  0  0  0  0
 22 23  2  0  0  0  0
 22 27  1  0  0  0  0
 23 24  1  0  0  0  0
 23 64  1  0  0  0  0
 24 25  2  0  0  0  0
 24 65  1  0  0  0  0
 25 26  1  0  0  0  0
 25 66  1  0  0  0  0
 26 27  2  0  0  0  0
 26 67  1  0  0  0  0
 28 29  1  0  0  0  0
 28 68  1  0  0  0  0
 29 30  1  0  0  0  0
 29 69  1  0  0  0  0
 29 70  1  0  0  0  0
 30 31  1  0  0  0  0
 30 71  1  0  0  0  0
 30 72  1  0  0  0  0
 31 32  1  0  0  0  0
 32 33  1  0  0  0  0
 32 73  1  0  0  0  0
 32 74  1  0  0  0  0
 33 34  1  0  0  0  0
 33 75  1  0  0  0  0
 33 76  1  0  0  0  0
 34 35  1  0  0  0  0
 35 36  1  0  0  0  0
 35 77  1  0  0  0  0
 35 78  1  0  0  0  0
 36 37  1  0  0  0  0
 36 79  1  0  0  0  0
 36 80  1  0  0  0  0
 37 38  1  0  0  0  0
 37 81  1  0  0  0  0
 38 39  2  0  0  0  0
 38 43  1  0  0  0  0
 39 40  1  0  0  0  0
 39 82  1  0  0  0  0
 40 41  2  0  0  0  0
 40 83  1  0  0  0  0
 41 42  1  0  0  0  0
 41 84  1  0  0  0  0
 42 43  2  0  0  0  0
 42 55  1  0  0  0  0
 43 44  1  0  0  0  0
 44 45  2  0  0  0  0
 44 46  1  0  0  0  0
 46 47  1  0  0  0  0
 46 55  1  0  0  0  0
 47 48  1  0  0  0  0
 47 53  1  0  0  0  0
 47 85  1  0  0  0  0
 48 49  1  0  0  0  0
 48 86  1  0  0  0  0
 48 87  1  0  0  0  0
 49 50  1  0  0  0  0
 49 88  1  0  0  0  0
 49 89  1  0  0  0  0
 50 51  2  0  0  0  0
 50 52  1  0  0  0  0
 52 53  1  0  0  0  0
 52 90  1  0  0  0  0
 53 54  2  0  0  0  0
 55 56  2  0  0  0  0
M  END
$$$$
protac3895RUN2
  chem.cr 07102519423D
protac3895RUN2
 90 96  0  0  0  0  0  0  0  0999 V2000
   -2.3876   -2.6074   -2.4868 O   0  0  0  0  0  0  0  0  0  0  0  0
   -2.8492   -1.4833   -2.3430 C   0  0  0  0  0  0  0  0  0  0  0  0
   -3.0599   -0.5400   -3.5025 C   0  0  0  0  0  0  0  0  0  0  0  0
   -4.4581   -0.1295   -3.7572 N   0  0  0  0  0  0  0  0  0  0  0  0
   -4.6399    1.0315   -4.5223 C   0  0  0  0  0  0  0  0  0  0  0  0
   -5.6488    0.9090   -5.4143 C   0  0  0  0  0  0  0  0  0  0  0  0
   -6.1404    1.8771   -6.2560 C   0  0  0  0  0  0  0  0  0  0  0  0
   -5.5949    3.0999   -6.4900 C   0  0  0  0  0  0  0  0  0  0  0  0
   -4.4356    3.6148   -5.9405 C   0  0  0  0  0  0  0  0  0  0  0  0
   -3.1912    3.3200   -6.5263 C   0  0  0  0  0  0  0  0  0  0  0  0
   -2.0053    3.8308   -5.9670 C   0  0  0  0  0  0  0  0  0  0  0  0
   -2.0638    4.6422   -4.8242 C   0  0  0  0  0  0  0  0  0  0  0  0
   -0.5813    5.2693   -4.1163 Cl  0  0  0  0  0  0  0  0  0  0  0  0
   -3.3031    4.9616   -4.2463 C   0  0  0  0  0  0  0  0  0  0  0  0
   -4.4866    4.4497   -4.8026 C   0  0  0  0  0  0  0  0  0  0  0  0
   -6.0282    4.8462   -4.0458 Cl  0  0  0  0  0  0  0  0  0  0  0  0
   -6.3279    3.8267   -7.3356 C   0  0  0  0  0  0  0  0  0  0  0  0
   -6.2159    4.9572   -7.7872 O   0  0  0  0  0  0  0  0  0  0  0  0
   -7.4114    3.0644   -7.7233 N   0  0  0  0  0  0  0  0  0  0  0  0
   -7.2895    1.8844   -6.9906 C   0  0  0  0  0  0  0  0  0  0  0  0
   -8.2595    1.1495   -7.0747 O   0  0  0  0  0  0  0  0  0  0  0  0
   -6.0930   -0.4192   -5.2605 C   0  0  0  0  0  0  0  0  0  0  0  0
   -6.9173   -1.2496   -6.0566 C   0  0  0  0  0  0  0  0  0  0  0  0
   -7.1466   -2.5877   -5.6676 C   0  0  0  0  0  0  0  0  0  0  0  0
   -6.5248   -3.1248   -4.5261 C   0  0  0  0  0  0  0  0  0  0  0  0
   -5.6153   -2.3461   -3.7951 C   0  0  0  0  0  0  0  0  0  0  0  0
   -5.4012   -1.0211   -4.2029 C   0  0  0  0  0  0  0  0  0  0  0  0
   -2.8279   -0.9099   -1.0621 N   0  0  0  0  0  0  0  0  0  0  0  0
   -2.0024   -1.4517    0.0320 C   0  0  0  0  0  0  0  0  0  0  0  0
   -2.7751   -2.4528    0.9146 C   0  0  0  0  0  0  0  0  0  0  0  0
   -1.8469   -3.2058    1.7211 O   0  0  0  0  0  0  0  0  0  0  0  0
   -0.9817   -2.4694    2.6067 C   0  0  0  0  0  0  0  0  0  0  0  0
   -0.1630   -3.5054    3.3962 C   0  0  0  0  0  0  0  0  0  0  0  0
    0.8447   -2.8068    4.1479 O   0  0  0  0  0  0  0  0  0  0  0  0
    1.7332   -3.6597    4.8846 C   0  0  0  0  0  0  0  0  0  0  0  0
    2.6914   -2.7835    5.7262 C   0  0  0  0  0  0  0  0  0  0  0  0
    3.8314   -2.2783    4.9359 N   0  0  0  0  0  0  0  0  0  0  0  0
    5.1637   -2.4314    5.3169 C   0  0  0  0  0  0  0  0  0  0  0  0
    5.6364   -3.5875    5.9870 C   0  0  0  0  0  0  0  0  0  0  0  0
    6.9878   -3.7007    6.3983 C   0  0  0  0  0  0  0  0  0  0  0  0
    7.9028   -2.6612    6.1385 C   0  0  0  0  0  0  0  0  0  0  0  0
    7.4363   -1.5396    5.4465 C   0  0  0  0  0  0  0  0  0  0  0  0
    6.1054   -1.4250    5.0438 C   0  0  0  0  0  0  0  0  0  0  0  0
    5.9508   -0.2068    4.4186 C   0  0  0  0  0  0  0  0  0  0  0  0
    4.9026    0.4229    4.3181 O   0  0  0  0  0  0  0  0  0  0  0  0
    7.1957    0.4499    4.4333 N   0  0  0  0  0  0  0  0  0  0  0  0
    7.5927    1.6494    3.6563 C   0  0  0  0  0  0  0  0  0  0  0  0
    7.8870    2.8376    4.5963 C   0  0  0  0  0  0  0  0  0  0  0  0
    6.5615    3.4037    5.1498 C   0  0  0  0  0  0  0  0  0  0  0  0
    5.5737    3.7283    4.0501 C   0  0  0  0  0  0  0  0  0  0  0  0
    4.7222    4.5996    4.1513 O   0  0  0  0  0  0  0  0  0  0  0  0
    5.6752    3.0742    2.8172 N   0  0  0  0  0  0  0  0  0  0  0  0
    6.5980    2.0452    2.5711 C   0  0  0  0  0  0  0  0  0  0  0  0
    6.6577    1.6308    1.4219 O   0  0  0  0  0  0  0  0  0  0  0  0
    8.1047   -0.4033    5.0633 C   0  0  0  0  0  0  0  0  0  0  0  0
    9.2842   -0.1133    5.2341 O   0  0  0  0  0  0  0  0  0  0  0  0
   -2.4431    0.3514   -3.3447 H   0  0  0  0  0  0  0  0  0  0  0  0
   -2.6908   -1.0366   -4.4092 H   0  0  0  0  0  0  0  0  0  0  0  0
   -4.0181    1.8866   -4.2832 H   0  0  0  0  0  0  0  0  0  0  0  0
   -3.1461    2.7022   -7.4181 H   0  0  0  0  0  0  0  0  0  0  0  0
   -1.0420    3.6076   -6.4192 H   0  0  0  0  0  0  0  0  0  0  0  0
   -3.3471    5.6141   -3.3781 H   0  0  0  0  0  0  0  0  0  0  0  0
   -8.2947    3.4464   -8.0271 H   0  0  0  0  0  0  0  0  0  0  0  0
   -7.3436   -0.9246   -6.9935 H   0  0  0  0  0  0  0  0  0  0  0  0
   -7.7942   -3.2183   -6.2698 H   0  0  0  0  0  0  0  0  0  0  0  0
   -6.7090   -4.1568   -4.2390 H   0  0  0  0  0  0  0  0  0  0  0  0
   -5.0814   -2.7730   -2.9521 H   0  0  0  0  0  0  0  0  0  0  0  0
   -3.3652   -0.0658   -0.9062 H   0  0  0  0  0  0  0  0  0  0  0  0
   -1.6392   -0.6218    0.6513 H   0  0  0  0  0  0  0  0  0  0  0  0
   -1.1265   -1.9627   -0.3923 H   0  0  0  0  0  0  0  0  0  0  0  0
   -3.3218   -3.1453    0.2604 H   0  0  0  0  0  0  0  0  0  0  0  0
   -3.5110   -1.9287    1.5365 H   0  0  0  0  0  0  0  0  0  0  0  0
   -1.5541   -1.8358    3.2954 H   0  0  0  0  0  0  0  0  0  0  0  0
   -0.2842   -1.8430    2.0395 H   0  0  0  0  0  0  0  0  0  0  0  0
    0.2977   -4.2078    2.6870 H   0  0  0  0  0  0  0  0  0  0  0  0
   -0.8314   -4.0687    4.0631 H   0  0  0  0  0  0  0  0  0  0  0  0
    1.1549   -4.3012    5.5619 H   0  0  0  0  0  0  0  0  0  0  0  0
    2.3085   -4.3054    4.2099 H   0  0  0  0  0  0  0  0  0  0  0  0
    2.1285   -1.9352    6.1363 H   0  0  0  0  0  0  0  0  0  0  0  0
    3.0479   -3.3694    6.5809 H   0  0  0  0  0  0  0  0  0  0  0  0
    3.6502   -1.4734    4.3436 H   0  0  0  0  0  0  0  0  0  0  0  0
    4.9621   -4.4159    6.1820 H   0  0  0  0  0  0  0  0  0  0  0  0
    7.3242   -4.5938    6.9181 H   0  0  0  0  0  0  0  0  0  0  0  0
    8.9411   -2.7237    6.4588 H   0  0  0  0  0  0  0  0  0  0  0  0
    8.5290    1.3937    3.1403 H   0  0  0  0  0  0  0  0  0  0  0  0
    8.4158    3.6200    4.0313 H   0  0  0  0  0  0  0  0  0  0  0  0
    8.5503    2.5275    5.4163 H   0  0  0  0  0  0  0  0  0  0  0  0
    6.1016    2.6729    5.8266 H   0  0  0  0  0  0  0  0  0  0  0  0
    6.7567    4.3051    5.7433 H   0  0  0  0  0  0  0  0  0  0  0  0
    5.0103    3.3038    2.0963 H   0  0  0  0  0  0  0  0  0  0  0  0
  1  2  2  0  0  0  0
  2  3  1  0  0  0  0
  2 28  1  0  0  0  0
  3  4  1  0  0  0  0
  3 57  1  0  0  0  0
  3 58  1  0  0  0  0
  4  5  1  0  0  0  0
  4 27  1  0  0  0  0
  5  6  2  0  0  0  0
  5 59  1  0  0  0  0
  6  7  1  0  0  0  0
  6 22  1  0  0  0  0
  7  8  2  0  0  0  0
  7 20  1  0  0  0  0
  8  9  1  0  0  0  0
  8 17  1  0  0  0  0
  9 10  2  0  0  0  0
  9 15  1  0  0  0  0
 10 11  1  0  0  0  0
 10 60  1  0  0  0  0
 11 12  2  0  0  0  0
 11 61  1  0  0  0  0
 12 13  1  0  0  0  0
 12 14  1  0  0  0  0
 14 15  2  0  0  0  0
 14 62  1  0  0  0  0
 15 16  1  0  0  0  0
 17 18  2  0  0  0  0
 17 19  1  0  0  0  0
 19 20  1  0  0  0  0
 19 63  1  0  0  0  0
 20 21  2  0  0  0  0
 22 23  2  0  0  0  0
 22 27  1  0  0  0  0
 23 24  1  0  0  0  0
 23 64  1  0  0  0  0
 24 25  2  0  0  0  0
 24 65  1  0  0  0  0
 25 26  1  0  0  0  0
 25 66  1  0  0  0  0
 26 27  2  0  0  0  0
 26 67  1  0  0  0  0
 28 29  1  0  0  0  0
 28 68  1  0  0  0  0
 29 30  1  0  0  0  0
 29 69  1  0  0  0  0
 29 70  1  0  0  0  0
 30 31  1  0  0  0  0
 30 71  1  0  0  0  0
 30 72  1  0  0  0  0
 31 32  1  0  0  0  0
 32 33  1  0  0  0  0
 32 73  1  0  0  0  0
 32 74  1  0  0  0  0
 33 34  1  0  0  0  0
 33 75  1  0  0  0  0
 33 76  1  0  0  0  0
 34 35  1  0  0  0  0
 35 36  1  0  0  0  0
 35 77  1  0  0  0  0
 35 78  1  0  0  0  0
 36 37  1  0  0  0  0
 36 79  1  0  0  0  0
 36 80  1  0  0  0  0
 37 38  1  0  0  0  0
 37 81  1  0  0  0  0
 38 39  2  0  0  0  0
 38 43  1  0  0  0  0
 39 40  1  0  0  0  0
 39 82  1  0  0  0  0
 40 41  2  0  0  0  0
 40 83  1  0  0  0  0
 41 42  1  0  0  0  0
 41 84  1  0  0  0  0
 42 43  2  0  0  0  0
 42 55  1  0  0  0  0
 43 44  1  0  0  0  0
 44 45  2  0  0  0  0
 44 46  1  0  0  0  0
 46 47  1  0  0  0  0
 46 55  1  0  0  0  0
 47 48  1  0  0  0  0
 47 53  1  0  0  0  0
 47 85  1  0  0  0  0
 48 49  1  0  0  0  0
 48 86  1  0  0  0  0
 48 87  1  0  0  0  0
 49 50  1  0  0  0  0
 49 88  1  0  0  0  0
 49 89  1  0  0  0  0
 50 51  2  0  0  0  0
 50 52  1  0  0  0  0
 52 53  1  0  0  0  0
 52 90  1  0  0  0  0
 53 54  2  0  0  0  0
 55 56  2  0  0  0  0
M  END
$$$$
protac3895RUN2
  chem.cr 07102519423D
protac3895RUN2
 90 96  0  0  0  0  0  0  0  0999 V2000
   -1.1637   -2.3741   -2.8785 O   0  0  0  0  0  0  0  0  0  0  0  0
   -1.0959   -2.3476   -1.6581 C   0  0  0  0  0  0  0  0  0  0  0  0
   -2.3151   -2.3648   -0.7577 C   0  0  0  0  0  0  0  0  0  0  0  0
   -2.2454   -3.2524    0.4258 N   0  0  0  0  0  0  0  0  0  0  0  0
   -1.2948   -4.2795    0.5292 C   0  0  0  0  0  0  0  0  0  0  0  0
   -0.8407   -4.3889    1.7990 C   0  0  0  0  0  0  0  0  0  0  0  0
    0.2256   -5.1185    2.2481 C   0  0  0  0  0  0  0  0  0  0  0  0
    0.8953   -6.0712    1.5600 C   0  0  0  0  0  0  0  0  0  0  0  0
    0.5837   -6.5513    0.3026 C   0  0  0  0  0  0  0  0  0  0  0  0
    1.4431   -6.2796   -0.7792 C   0  0  0  0  0  0  0  0  0  0  0  0
    1.1358   -6.7500   -2.0670 C   0  0  0  0  0  0  0  0  0  0  0  0
   -0.0266   -7.5099   -2.2747 C   0  0  0  0  0  0  0  0  0  0  0  0
   -0.4022   -8.1207   -3.8802 Cl  0  0  0  0  0  0  0  0  0  0  0  0
   -0.8786   -7.8038   -1.1992 C   0  0  0  0  0  0  0  0  0  0  0  0
   -0.5776   -7.3304    0.0877 C   0  0  0  0  0  0  0  0  0  0  0  0
   -1.6663   -7.7320    1.4179 Cl  0  0  0  0  0  0  0  0  0  0  0  0
    1.9266   -6.5534    2.2550 C   0  0  0  0  0  0  0  0  0  0  0  0
    2.7839   -7.3894    2.0137 O   0  0  0  0  0  0  0  0  0  0  0  0
    1.9479   -5.9185    3.4821 N   0  0  0  0  0  0  0  0  0  0  0  0
    0.8975   -5.0047    3.4252 C   0  0  0  0  0  0  0  0  0  0  0  0
    0.8515   -4.2229    4.3618 O   0  0  0  0  0  0  0  0  0  0  0  0
   -1.6521   -3.5264    2.5527 C   0  0  0  0  0  0  0  0  0  0  0  0
   -1.9264   -3.4703    3.9365 C   0  0  0  0  0  0  0  0  0  0  0  0
   -2.9161   -2.5838    4.4133 C   0  0  0  0  0  0  0  0  0  0  0  0
   -3.6800   -1.8033    3.5197 C   0  0  0  0  0  0  0  0  0  0  0  0
   -3.4866   -1.9329    2.1346 C   0  0  0  0  0  0  0  0  0  0  0  0
   -2.4855   -2.8073    1.6937 C   0  0  0  0  0  0  0  0  0  0  0  0
    0.1658   -2.2004   -1.0600 N   0  0  0  0  0  0  0  0  0  0  0  0
    1.4046   -2.5928   -1.7505 C   0  0  0  0  0  0  0  0  0  0  0  0
    2.6189   -2.7265   -0.8048 C   0  0  0  0  0  0  0  0  0  0  0  0
    2.8851   -1.4329   -0.2557 O   0  0  0  0  0  0  0  0  0  0  0  0
    2.6205   -1.2765    1.1464 C   0  0  0  0  0  0  0  0  0  0  0  0
    2.3362    0.2114    1.3698 C   0  0  0  0  0  0  0  0  0  0  0  0
    1.0127    0.4683    0.8678 O   0  0  0  0  0  0  0  0  0  0  0  0
    0.8502    1.6771    0.1150 C   0  0  0  0  0  0  0  0  0  0  0  0
    1.4003    1.4502   -1.3121 C   0  0  0  0  0  0  0  0  0  0  0  0
    1.4382    2.7309   -2.0318 N   0  0  0  0  0  0  0  0  0  0  0  0
    0.2814    3.3785   -2.4448 C   0  0  0  0  0  0  0  0  0  0  0  0
   -0.7939    2.7036   -3.0668 C   0  0  0  0  0  0  0  0  0  0  0  0
   -1.9809    3.3949   -3.4169 C   0  0  0  0  0  0  0  0  0  0  0  0
   -2.1187    4.7704   -3.1332 C   0  0  0  0  0  0  0  0  0  0  0  0
   -1.0414    5.4272   -2.5271 C   0  0  0  0  0  0  0  0  0  0  0  0
    0.1320    4.7481   -2.2051 C   0  0  0  0  0  0  0  0  0  0  0  0
    0.9726    5.6368   -1.5805 C   0  0  0  0  0  0  0  0  0  0  0  0
    2.0520    5.4173   -1.0416 O   0  0  0  0  0  0  0  0  0  0  0  0
    0.3131    6.8614   -1.4572 N   0  0  0  0  0  0  0  0  0  0  0  0
    0.8688    8.0361   -0.7461 C   0  0  0  0  0  0  0  0  0  0  0  0
    0.8113    7.8388    0.7852 C   0  0  0  0  0  0  0  0  0  0  0  0
   -0.6475    7.9712    1.2740 C   0  0  0  0  0  0  0  0  0  0  0  0
   -1.2962    9.2512    0.7900 C   0  0  0  0  0  0  0  0  0  0  0  0
   -2.1743    9.8308    1.4130 O   0  0  0  0  0  0  0  0  0  0  0  0
   -0.7694    9.9141   -0.3282 N   0  0  0  0  0  0  0  0  0  0  0  0
    0.2273    9.3574   -1.1457 C   0  0  0  0  0  0  0  0  0  0  0  0
    0.6356   10.0554   -2.0661 O   0  0  0  0  0  0  0  0  0  0  0  0
   -0.9360    6.7300   -2.0935 C   0  0  0  0  0  0  0  0  0  0  0  0
   -1.8679    7.5007   -1.8953 O   0  0  0  0  0  0  0  0  0  0  0  0
   -2.4963   -1.3407   -0.4154 H   0  0  0  0  0  0  0  0  0  0  0  0
   -3.1805   -2.6674   -1.3564 H   0  0  0  0  0  0  0  0  0  0  0  0
   -0.9410   -4.7385   -0.3879 H   0  0  0  0  0  0  0  0  0  0  0  0
    2.3525   -5.7098   -0.6163 H   0  0  0  0  0  0  0  0  0  0  0  0
    1.8036   -6.5455   -2.8980 H   0  0  0  0  0  0  0  0  0  0  0  0
   -1.7702   -8.4037   -1.3588 H   0  0  0  0  0  0  0  0  0  0  0  0
    2.7762   -5.7920    4.0436 H   0  0  0  0  0  0  0  0  0  0  0  0
   -1.4527   -4.1392    4.6424 H   0  0  0  0  0  0  0  0  0  0  0  0
   -3.1202   -2.5345    5.4799 H   0  0  0  0  0  0  0  0  0  0  0  0
   -4.4574   -1.1476    3.9022 H   0  0  0  0  0  0  0  0  0  0  0  0
   -4.1282   -1.4105    1.4325 H   0  0  0  0  0  0  0  0  0  0  0  0
    0.2150   -1.9007   -0.0924 H   0  0  0  0  0  0  0  0  0  0  0  0
    1.6276   -1.8448   -2.5221 H   0  0  0  0  0  0  0  0  0  0  0  0
    1.2367   -3.5507   -2.2631 H   0  0  0  0  0  0  0  0  0  0  0  0
    3.4864   -3.0661   -1.3847 H   0  0  0  0  0  0  0  0  0  0  0  0
    2.4188   -3.4693   -0.0195 H   0  0  0  0  0  0  0  0  0  0  0  0
    3.4944   -1.5821    1.7361 H   0  0  0  0  0  0  0  0  0  0  0  0
    1.7543   -1.8648    1.4759 H   0  0  0  0  0  0  0  0  0  0  0  0
    3.1014    0.8080    0.8553 H   0  0  0  0  0  0  0  0  0  0  0  0
    2.3852    0.4463    2.4406 H   0  0  0  0  0  0  0  0  0  0  0  0
   -0.2108    1.9498    0.0528 H   0  0  0  0  0  0  0  0  0  0  0  0
    1.3786    2.5077    0.6021 H   0  0  0  0  0  0  0  0  0  0  0  0
    2.4117    1.0282   -1.2644 H   0  0  0  0  0  0  0  0  0  0  0  0
    0.7694    0.7221   -1.8338 H   0  0  0  0  0  0  0  0  0  0  0  0
    2.1740    3.3703   -1.7489 H   0  0  0  0  0  0  0  0  0  0  0  0
   -0.7152    1.6438   -3.2827 H   0  0  0  0  0  0  0  0  0  0  0  0
   -2.7972    2.8589   -3.8939 H   0  0  0  0  0  0  0  0  0  0  0  0
   -3.0345    5.3087   -3.3685 H   0  0  0  0  0  0  0  0  0  0  0  0
    1.9265    8.1026   -1.0351 H   0  0  0  0  0  0  0  0  0  0  0  0
    1.4293    8.6096    1.2671 H   0  0  0  0  0  0  0  0  0  0  0  0
    1.2314    6.8647    1.0700 H   0  0  0  0  0  0  0  0  0  0  0  0
   -1.2397    7.1173    0.9211 H   0  0  0  0  0  0  0  0  0  0  0  0
   -0.6793    7.9403    2.3696 H   0  0  0  0  0  0  0  0  0  0  0  0
   -1.1879   10.7871   -0.6106 H   0  0  0  0  0  0  0  0  0  0  0  0
  1  2  2  0  0  0  0
  2  3  1  0  0  0  0
  2 28  1  0  0  0  0
  3  4  1  0  0  0  0
  3 57  1  0  0  0  0
  3 58  1  0  0  0  0
  4  5  1  0  0  0  0
  4 27  1  0  0  0  0
  5  6  2  0  0  0  0
  5 59  1  0  0  0  0
  6  7  1  0  0  0  0
  6 22  1  0  0  0  0
  7  8  2  0  0  0  0
  7 20  1  0  0  0  0
  8  9  1  0  0  0  0
  8 17  1  0  0  0  0
  9 10  2  0  0  0  0
  9 15  1  0  0  0  0
 10 11  1  0  0  0  0
 10 60  1  0  0  0  0
 11 12  2  0  0  0  0
 11 61  1  0  0  0  0
 12 13  1  0  0  0  0
 12 14  1  0  0  0  0
 14 15  2  0  0  0  0
 14 62  1  0  0  0  0
 15 16  1  0  0  0  0
 17 18  2  0  0  0  0
 17 19  1  0  0  0  0
 19 20  1  0  0  0  0
 19 63  1  0  0  0  0
 20 21  2  0  0  0  0
 22 23  2  0  0  0  0
 22 27  1  0  0  0  0
 23 24  1  0  0  0  0
 23 64  1  0  0  0  0
 24 25  2  0  0  0  0
 24 65  1  0  0  0  0
 25 26  1  0  0  0  0
 25 66  1  0  0  0  0
 26 27  2  0  0  0  0
 26 67  1  0  0  0  0
 28 29  1  0  0  0  0
 28 68  1  0  0  0  0
 29 30  1  0  0  0  0
 29 69  1  0  0  0  0
 29 70  1  0  0  0  0
 30 31  1  0  0  0  0
 30 71  1  0  0  0  0
 30 72  1  0  0  0  0
 31 32  1  0  0  0  0
 32 33  1  0  0  0  0
 32 73  1  0  0  0  0
 32 74  1  0  0  0  0
 33 34  1  0  0  0  0
 33 75  1  0  0  0  0
 33 76  1  0  0  0  0
 34 35  1  0  0  0  0
 35 36  1  0  0  0  0
 35 77  1  0  0  0  0
 35 78  1  0  0  0  0
 36 37  1  0  0  0  0
 36 79  1  0  0  0  0
 36 80  1  0  0  0  0
 37 38  1  0  0  0  0
 37 81  1  0  0  0  0
 38 39  2  0  0  0  0
 38 43  1  0  0  0  0
 39 40  1  0  0  0  0
 39 82  1  0  0  0  0
 40 41  2  0  0  0  0
 40 83  1  0  0  0  0
 41 42  1  0  0  0  0
 41 84  1  0  0  0  0
 42 43  2  0  0  0  0
 42 55  1  0  0  0  0
 43 44  1  0  0  0  0
 44 45  2  0  0  0  0
 44 46  1  0  0  0  0
 46 47  1  0  0  0  0
 46 55  1  0  0  0  0
 47 48  1  0  0  0  0
 47 53  1  0  0  0  0
 47 85  1  0  0  0  0
 48 49  1  0  0  0  0
 48 86  1  0  0  0  0
 48 87  1  0  0  0  0
 49 50  1  0  0  0  0
 49 88  1  0  0  0  0
 49 89  1  0  0  0  0
 50 51  2  0  0  0  0
 50 52  1  0  0  0  0
 52 53  1  0  0  0  0
 52 90  1  0  0  0  0
 53 54  2  0  0  0  0
 55 56  2  0  0  0  0
M  END
$$$$
protac3895RUN2
  chem.cr 07102519423D
protac3895RUN2
 90 96  0  0  0  0  0  0  0  0999 V2000
    2.2792   -4.7352   -2.9426 O   0  0  0  0  0  0  0  0  0  0  0  0
    1.6082   -3.7168   -2.8360 C   0  0  0  0  0  0  0  0  0  0  0  0
    0.3221   -3.6393   -2.0517 C   0  0  0  0  0  0  0  0  0  0  0  0
    0.5064   -3.8687   -0.6051 N   0  0  0  0  0  0  0  0  0  0  0  0
   -0.0772   -4.9874   -0.0037 C   0  0  0  0  0  0  0  0  0  0  0  0
   -0.5808   -4.6861    1.2167 C   0  0  0  0  0  0  0  0  0  0  0  0
   -1.3308   -5.4963    2.0259 C   0  0  0  0  0  0  0  0  0  0  0  0
   -1.4588   -6.8417    1.9081 C   0  0  0  0  0  0  0  0  0  0  0  0
   -0.7604   -7.6554    1.0320 C   0  0  0  0  0  0  0  0  0  0  0  0
    0.6410   -7.7574    1.1610 C   0  0  0  0  0  0  0  0  0  0  0  0
    1.3849   -8.5398    0.2619 C   0  0  0  0  0  0  0  0  0  0  0  0
    0.7275   -9.2428   -0.7600 C   0  0  0  0  0  0  0  0  0  0  0  0
    1.6555  -10.2171   -1.8921 Cl  0  0  0  0  0  0  0  0  0  0  0  0
   -0.6686   -9.1669   -0.8835 C   0  0  0  0  0  0  0  0  0  0  0  0
   -1.4138   -8.3736    0.0040 C   0  0  0  0  0  0  0  0  0  0  0  0
   -3.1596   -8.2659   -0.2226 Cl  0  0  0  0  0  0  0  0  0  0  0  0
   -2.2734   -7.3451    2.8365 C   0  0  0  0  0  0  0  0  0  0  0  0
   -2.6150   -8.4820    3.1343 O   0  0  0  0  0  0  0  0  0  0  0  0
   -2.7604   -6.2930    3.5888 N   0  0  0  0  0  0  0  0  0  0  0  0
   -2.1299   -5.1639    3.0735 C   0  0  0  0  0  0  0  0  0  0  0  0
   -2.4838   -4.1100    3.5825 O   0  0  0  0  0  0  0  0  0  0  0  0
   -0.2095   -3.3491    1.4425 C   0  0  0  0  0  0  0  0  0  0  0  0
   -0.1741   -2.5638    2.6154 C   0  0  0  0  0  0  0  0  0  0  0  0
    0.3959   -1.2731    2.5717 C   0  0  0  0  0  0  0  0  0  0  0  0
    1.0094   -0.7912    1.3975 C   0  0  0  0  0  0  0  0  0  0  0  0
    1.0727   -1.6094    0.2573 C   0  0  0  0  0  0  0  0  0  0  0  0
    0.4513   -2.8605    0.3114 C   0  0  0  0  0  0  0  0  0  0  0  0
    1.8778   -2.6400   -3.6913 N   0  0  0  0  0  0  0  0  0  0  0  0
    3.1319   -2.5053   -4.4457 C   0  0  0  0  0  0  0  0  0  0  0  0
    3.0234   -1.4238   -5.5501 C   0  0  0  0  0  0  0  0  0  0  0  0
    2.2573   -0.3037   -5.0677 O   0  0  0  0  0  0  0  0  0  0  0  0
    2.8476    0.4765   -4.0159 C   0  0  0  0  0  0  0  0  0  0  0  0
    1.7511    1.3850   -3.4357 C   0  0  0  0  0  0  0  0  0  0  0  0
    0.7555    0.5343   -2.8347 O   0  0  0  0  0  0  0  0  0  0  0  0
    0.2282    0.9690   -1.5726 C   0  0  0  0  0  0  0  0  0  0  0  0
   -0.5980    2.2556   -1.7438 C   0  0  0  0  0  0  0  0  0  0  0  0
   -0.7767    2.8717   -0.4221 N   0  0  0  0  0  0  0  0  0  0  0  0
   -1.8008    3.7519   -0.1018 C   0  0  0  0  0  0  0  0  0  0  0  0
   -3.1209    3.6095   -0.5842 C   0  0  0  0  0  0  0  0  0  0  0  0
   -4.1253    4.5492   -0.2405 C   0  0  0  0  0  0  0  0  0  0  0  0
   -3.8211    5.6539    0.5832 C   0  0  0  0  0  0  0  0  0  0  0  0
   -2.5077    5.7796    1.0525 C   0  0  0  0  0  0  0  0  0  0  0  0
   -1.5304    4.8416    0.7338 C   0  0  0  0  0  0  0  0  0  0  0  0
   -0.3580    5.2482    1.3210 C   0  0  0  0  0  0  0  0  0  0  0  0
    0.7493    4.7177    1.2556 O   0  0  0  0  0  0  0  0  0  0  0  0
   -0.5641    6.4661    1.9817 N   0  0  0  0  0  0  0  0  0  0  0  0
    0.5016    7.4888    2.0827 C   0  0  0  0  0  0  0  0  0  0  0  0
    0.9336    7.7470    3.5433 C   0  0  0  0  0  0  0  0  0  0  0  0
   -0.0371    8.7151    4.2557 C   0  0  0  0  0  0  0  0  0  0  0  0
   -0.2948    9.9699    3.4508 C   0  0  0  0  0  0  0  0  0  0  0  0
   -0.5486   11.0523    3.9564 O   0  0  0  0  0  0  0  0  0  0  0  0
   -0.2399    9.9177    2.0537 N   0  0  0  0  0  0  0  0  0  0  0  0
    0.1497    8.7742    1.3417 C   0  0  0  0  0  0  0  0  0  0  0  0
    0.2427    8.8929    0.1285 O   0  0  0  0  0  0  0  0  0  0  0  0
   -1.9283    6.7667    1.8141 C   0  0  0  0  0  0  0  0  0  0  0  0
   -2.4993    7.6366    2.4629 O   0  0  0  0  0  0  0  0  0  0  0  0
   -0.1410   -2.6553   -2.1901 H   0  0  0  0  0  0  0  0  0  0  0  0
   -0.3723   -4.3873   -2.4510 H   0  0  0  0  0  0  0  0  0  0  0  0
   -0.1668   -5.8940   -0.5958 H   0  0  0  0  0  0  0  0  0  0  0  0
    1.1516   -7.2034    1.9459 H   0  0  0  0  0  0  0  0  0  0  0  0
    2.4673   -8.5958    0.3518 H   0  0  0  0  0  0  0  0  0  0  0  0
   -1.1735   -9.7179   -1.6720 H   0  0  0  0  0  0  0  0  0  0  0  0
   -3.1419   -6.3684    4.5171 H   0  0  0  0  0  0  0  0  0  0  0  0
   -0.5093   -2.9364    3.5719 H   0  0  0  0  0  0  0  0  0  0  0  0
    0.4034   -0.6610    3.4708 H   0  0  0  0  0  0  0  0  0  0  0  0
    1.4817    0.1874    1.3973 H   0  0  0  0  0  0  0  0  0  0  0  0
    1.6201   -1.3022   -0.6294 H   0  0  0  0  0  0  0  0  0  0  0  0
    1.2465   -1.8448   -3.7001 H   0  0  0  0  0  0  0  0  0  0  0  0
    3.3927   -3.4722   -4.8970 H   0  0  0  0  0  0  0  0  0  0  0  0
    3.9362   -2.2488   -3.7448 H   0  0  0  0  0  0  0  0  0  0  0  0
    2.5128   -1.8615   -6.4170 H   0  0  0  0  0  0  0  0  0  0  0  0
    4.0248   -1.1095   -5.8747 H   0  0  0  0  0  0  0  0  0  0  0  0
    3.6704    1.0873   -4.4068 H   0  0  0  0  0  0  0  0  0  0  0  0
    3.2388   -0.1561   -3.2085 H   0  0  0  0  0  0  0  0  0  0  0  0
    1.3103    2.0008   -4.2298 H   0  0  0  0  0  0  0  0  0  0  0  0
    2.2082    2.0518   -2.6911 H   0  0  0  0  0  0  0  0  0  0  0  0
   -0.4163    0.1906   -1.1435 H   0  0  0  0  0  0  0  0  0  0  0  0
    1.0518    1.1455   -0.8680 H   0  0  0  0  0  0  0  0  0  0  0  0
   -0.0775    2.9644   -2.4023 H   0  0  0  0  0  0  0  0  0  0  0  0
   -1.5602    2.0066   -2.2101 H   0  0  0  0  0  0  0  0  0  0  0  0
    0.0651    3.0032    0.1299 H   0  0  0  0  0  0  0  0  0  0  0  0
   -3.3837    2.7637   -1.2107 H   0  0  0  0  0  0  0  0  0  0  0  0
   -5.1353    4.4208   -0.6218 H   0  0  0  0  0  0  0  0  0  0  0  0
   -4.5766    6.3919    0.8404 H   0  0  0  0  0  0  0  0  0  0  0  0
    1.3818    7.0845    1.5634 H   0  0  0  0  0  0  0  0  0  0  0  0
    1.9380    8.1903    3.5330 H   0  0  0  0  0  0  0  0  0  0  0  0
    1.0078    6.7973    4.0909 H   0  0  0  0  0  0  0  0  0  0  0  0
   -0.9938    8.2171    4.4503 H   0  0  0  0  0  0  0  0  0  0  0  0
    0.3645    8.9956    5.2372 H   0  0  0  0  0  0  0  0  0  0  0  0
   -0.4837   10.7459    1.5326 H   0  0  0  0  0  0  0  0  0  0  0  0
  1  2  2  0  0  0  0
  2  3  1  0  0  0  0
  2 28  1  0  0  0  0
  3  4  1  0  0  0  0
  3 57  1  0  0  0  0
  3 58  1  0  0  0  0
  4  5  1  0  0  0  0
  4 27  1  0  0  0  0
  5  6  2  0  0  0  0
  5 59  1  0  0  0  0
  6  7  1  0  0  0  0
  6 22  1  0  0  0  0
  7  8  2  0  0  0  0
  7 20  1  0  0  0  0
  8  9  1  0  0  0  0
  8 17  1  0  0  0  0
  9 10  2  0  0  0  0
  9 15  1  0  0  0  0
 10 11  1  0  0  0  0
 10 60  1  0  0  0  0
 11 12  2  0  0  0  0
 11 61  1  0  0  0  0
 12 13  1  0  0  0  0
 12 14  1  0  0  0  0
 14 15  2  0  0  0  0
 14 62  1  0  0  0  0
 15 16  1  0  0  0  0
 17 18  2  0  0  0  0
 17 19  1  0  0  0  0
 19 20  1  0  0  0  0
 19 63  1  0  0  0  0
 20 21  2  0  0  0  0
 22 23  2  0  0  0  0
 22 27  1  0  0  0  0
 23 24  1  0  0  0  0
 23 64  1  0  0  0  0
 24 25  2  0  0  0  0
 24 65  1  0  0  0  0
 25 26  1  0  0  0  0
 25 66  1  0  0  0  0
 26 27  2  0  0  0  0
 26 67  1  0  0  0  0
 28 29  1  0  0  0  0
 28 68  1  0  0  0  0
 29 30  1  0  0  0  0
 29 69  1  0  0  0  0
 29 70  1  0  0  0  0
 30 31  1  0  0  0  0
 30 71  1  0  0  0  0
 30 72  1  0  0  0  0
 31 32  1  0  0  0  0
 32 33  1  0  0  0  0
 32 73  1  0  0  0  0
 32 74  1  0  0  0  0
 33 34  1  0  0  0  0
 33 75  1  0  0  0  0
 33 76  1  0  0  0  0
 34 35  1  0  0  0  0
 35 36  1  0  0  0  0
 35 77  1  0  0  0  0
 35 78  1  0  0  0  0
 36 37  1  0  0  0  0
 36 79  1  0  0  0  0
 36 80  1  0  0  0  0
 37 38  1  0  0  0  0
 37 81  1  0  0  0  0
 38 39  2  0  0  0  0
 38 43  1  0  0  0  0
 39 40  1  0  0  0  0
 39 82  1  0  0  0  0
 40 41  2  0  0  0  0
 40 83  1  0  0  0  0
 41 42  1  0  0  0  0
 41 84  1  0  0  0  0
 42 43  2  0  0  0  0
 42 55  1  0  0  0  0
 43 44  1  0  0  0  0
 44 45  2  0  0  0  0
 44 46  1  0  0  0  0
 46 47  1  0  0  0  0
 46 55  1  0  0  0  0
 47 48  1  0  0  0  0
 47 53  1  0  0  0  0
 47 85  1  0  0  0  0
 48 49  1  0  0  0  0
 48 86  1  0  0  0  0
 48 87  1  0  0  0  0
 49 50  1  0  0  0  0
 49 88  1  0  0  0  0
 49 89  1  0  0  0  0
 50 51  2  0  0  0  0
 50 52  1  0  0  0  0
 52 53  1  0  0  0  0
 52 90  1  0  0  0  0
 53 54  2  0  0  0  0
 55 56  2  0  0  0  0
M  END
$$$$
protac3895RUN2
  chem.cr 07102519423D
protac3895RUN2
 90 96  0  0  0  0  0  0  0  0999 V2000
   -2.8313    1.9562    1.9552 O   0  0  0  0  0  0  0  0  0  0  0  0
   -2.7409    1.5055    0.8247 C   0  0  0  0  0  0  0  0  0  0  0  0
   -3.2708    0.1392    0.4533 C   0  0  0  0  0  0  0  0  0  0  0  0
   -4.5283    0.1735   -0.3163 N   0  0  0  0  0  0  0  0  0  0  0  0
   -5.5933    1.0021    0.0532 C   0  0  0  0  0  0  0  0  0  0  0  0
   -6.4589    1.1601   -0.9747 C   0  0  0  0  0  0  0  0  0  0  0  0
   -7.7048    1.7358   -0.8942 C   0  0  0  0  0  0  0  0  0  0  0  0
   -8.7738    1.7350   -1.7341 C   0  0  0  0  0  0  0  0  0  0  0  0
   -8.9415    1.0348   -2.9153 C   0  0  0  0  0  0  0  0  0  0  0  0
   -8.8742   -0.3736   -2.9058 C   0  0  0  0  0  0  0  0  0  0  0  0
   -9.0793   -1.1047   -4.0906 C   0  0  0  0  0  0  0  0  0  0  0  0
   -9.3706   -0.4337   -5.2880 C   0  0  0  0  0  0  0  0  0  0  0  0
   -9.6232   -1.3415   -6.7708 Cl  0  0  0  0  0  0  0  0  0  0  0  0
   -9.4571    0.9679   -5.3067 C   0  0  0  0  0  0  0  0  0  0  0  0
   -9.2500    1.7012   -4.1270 C   0  0  0  0  0  0  0  0  0  0  0  0
   -9.3151    3.4633   -4.2170 Cl  0  0  0  0  0  0  0  0  0  0  0  0
   -9.8164    2.3808   -1.1968 C   0  0  0  0  0  0  0  0  0  0  0  0
  -10.9821    2.5282   -1.5376 O   0  0  0  0  0  0  0  0  0  0  0  0
   -9.4356    2.8911    0.0270 N   0  0  0  0  0  0  0  0  0  0  0  0
   -8.1380    2.4167    0.2003 C   0  0  0  0  0  0  0  0  0  0  0  0
   -7.6237    2.6942    1.2752 O   0  0  0  0  0  0  0  0  0  0  0  0
   -5.8298    0.5405   -2.0728 C   0  0  0  0  0  0  0  0  0  0  0  0
   -6.0194    0.6730   -3.4619 C   0  0  0  0  0  0  0  0  0  0  0  0
   -5.1930   -0.0470   -4.3515 C   0  0  0  0  0  0  0  0  0  0  0  0
   -4.1217   -0.8288   -3.8712 C   0  0  0  0  0  0  0  0  0  0  0  0
   -3.8290   -0.8428   -2.4966 C   0  0  0  0  0  0  0  0  0  0  0  0
   -4.6776   -0.1259   -1.6406 C   0  0  0  0  0  0  0  0  0  0  0  0
   -1.7805    2.1127    0.0058 N   0  0  0  0  0  0  0  0  0  0  0  0
   -1.7653    2.0385   -1.4645 C   0  0  0  0  0  0  0  0  0  0  0  0
   -0.8295    0.9493   -2.0449 C   0  0  0  0  0  0  0  0  0  0  0  0
    0.5550    1.2798   -1.8068 O   0  0  0  0  0  0  0  0  0  0  0  0
    1.1448    0.9134   -0.5388 C   0  0  0  0  0  0  0  0  0  0  0  0
    1.3130   -0.6180   -0.4522 C   0  0  0  0  0  0  0  0  0  0  0  0
    1.8681   -0.9082    0.8366 O   0  0  0  0  0  0  0  0  0  0  0  0
    2.0815   -2.2979    1.1087 C   0  0  0  0  0  0  0  0  0  0  0  0
    2.6360   -2.4256    2.5429 C   0  0  0  0  0  0  0  0  0  0  0  0
    4.0754   -2.1121    2.6049 N   0  0  0  0  0  0  0  0  0  0  0  0
    4.6427   -0.8712    2.8735 C   0  0  0  0  0  0  0  0  0  0  0  0
    3.8883    0.3214    2.9884 C   0  0  0  0  0  0  0  0  0  0  0  0
    4.5192    1.5668    3.2325 C   0  0  0  0  0  0  0  0  0  0  0  0
    5.9196    1.6484    3.3662 C   0  0  0  0  0  0  0  0  0  0  0  0
    6.6540    0.4610    3.2613 C   0  0  0  0  0  0  0  0  0  0  0  0
    6.0325   -0.7652    3.0271 C   0  0  0  0  0  0  0  0  0  0  0  0
    7.0141   -1.7289    2.9694 C   0  0  0  0  0  0  0  0  0  0  0  0
    6.8819   -2.9480    2.9203 O   0  0  0  0  0  0  0  0  0  0  0  0
    8.2573   -1.1255    3.1874 N   0  0  0  0  0  0  0  0  0  0  0  0
    9.5374   -1.7294    2.7642 C   0  0  0  0  0  0  0  0  0  0  0  0
   10.6333   -1.5481    3.8391 C   0  0  0  0  0  0  0  0  0  0  0  0
   11.9607   -2.1530    3.3354 C   0  0  0  0  0  0  0  0  0  0  0  0
   12.3483   -1.6156    1.9753 C   0  0  0  0  0  0  0  0  0  0  0  0
   13.4977   -1.6007    1.5654 O   0  0  0  0  0  0  0  0  0  0  0  0
   11.3398   -1.3367    1.0467 N   0  0  0  0  0  0  0  0  0  0  0  0
    9.9863   -1.2237    1.3964 C   0  0  0  0  0  0  0  0  0  0  0  0
    9.2189   -0.9867    0.4726 O   0  0  0  0  0  0  0  0  0  0  0  0
    8.0119    0.2493    3.3430 C   0  0  0  0  0  0  0  0  0  0  0  0
    8.9056    1.0847    3.4385 O   0  0  0  0  0  0  0  0  0  0  0  0
   -2.5094   -0.4220   -0.0897 H   0  0  0  0  0  0  0  0  0  0  0  0
   -3.4667   -0.4068    1.3827 H   0  0  0  0  0  0  0  0  0  0  0  0
   -5.6691    1.3105    1.0943 H   0  0  0  0  0  0  0  0  0  0  0  0
   -8.6511   -0.8967   -1.9814 H   0  0  0  0  0  0  0  0  0  0  0  0
   -9.0113   -2.1897   -4.0778 H   0  0  0  0  0  0  0  0  0  0  0  0
   -9.6802    1.4865   -6.2334 H   0  0  0  0  0  0  0  0  0  0  0  0
  -10.0764    3.0386    0.7919 H   0  0  0  0  0  0  0  0  0  0  0  0
   -6.7478    1.3535   -3.8716 H   0  0  0  0  0  0  0  0  0  0  0  0
   -5.3701    0.0189   -5.4219 H   0  0  0  0  0  0  0  0  0  0  0  0
   -3.4912   -1.3750   -4.5701 H   0  0  0  0  0  0  0  0  0  0  0  0
   -2.9672   -1.3831   -2.1213 H   0  0  0  0  0  0  0  0  0  0  0  0
   -1.2211    2.8310    0.4493 H   0  0  0  0  0  0  0  0  0  0  0  0
   -1.4475    3.0125   -1.8615 H   0  0  0  0  0  0  0  0  0  0  0  0
   -2.7897    1.8680   -1.8248 H   0  0  0  0  0  0  0  0  0  0  0  0
   -0.9991    0.9068   -3.1284 H   0  0  0  0  0  0  0  0  0  0  0  0
   -1.0874   -0.0356   -1.6480 H   0  0  0  0  0  0  0  0  0  0  0  0
    0.5541    1.2728    0.3105 H   0  0  0  0  0  0  0  0  0  0  0  0
    2.1401    1.3680   -0.4557 H   0  0  0  0  0  0  0  0  0  0  0  0
    1.9866   -0.9529   -1.2512 H   0  0  0  0  0  0  0  0  0  0  0  0
    0.3484   -1.1245   -0.5694 H   0  0  0  0  0  0  0  0  0  0  0  0
    1.1325   -2.8453    1.0411 H   0  0  0  0  0  0  0  0  0  0  0  0
    2.7879   -2.7383    0.3929 H   0  0  0  0  0  0  0  0  0  0  0  0
    2.0648   -1.7836    3.2231 H   0  0  0  0  0  0  0  0  0  0  0  0
    2.4886   -3.4587    2.8826 H   0  0  0  0  0  0  0  0  0  0  0  0
    4.7360   -2.8745    2.4999 H   0  0  0  0  0  0  0  0  0  0  0  0
    2.8113    0.3032    2.8755 H   0  0  0  0  0  0  0  0  0  0  0  0
    3.9209    2.4708    3.3091 H   0  0  0  0  0  0  0  0  0  0  0  0
    6.4185    2.5981    3.5410 H   0  0  0  0  0  0  0  0  0  0  0  0
    9.3685   -2.8080    2.6464 H   0  0  0  0  0  0  0  0  0  0  0  0
   10.3203   -2.0158    4.7832 H   0  0  0  0  0  0  0  0  0  0  0  0
   10.7845   -0.4805    4.0463 H   0  0  0  0  0  0  0  0  0  0  0  0
   12.7650   -1.9333    4.0489 H   0  0  0  0  0  0  0  0  0  0  0  0
   11.8831   -3.2462    3.2756 H   0  0  0  0  0  0  0  0  0  0  0  0
   11.6074   -1.1000    0.1023 H   0  0  0  0  0  0  0  0  0  0  0  0
  1  2  2  0  0  0  0
  2  3  1  0  0  0  0
  2 28  1  0  0  0  0
  3  4  1  0  0  0  0
  3 57  1  0  0  0  0
  3 58  1  0  0  0  0
  4  5  1  0  0  0  0
  4 27  1  0  0  0  0
  5  6  2  0  0  0  0
  5 59  1  0  0  0  0
  6  7  1  0  0  0  0
  6 22  1  0  0  0  0
  7  8  2  0  0  0  0
  7 20  1  0  0  0  0
  8  9  1  0  0  0  0
  8 17  1  0  0  0  0
  9 10  2  0  0  0  0
  9 15  1  0  0  0  0
 10 11  1  0  0  0  0
 10 60  1  0  0  0  0
 11 12  2  0  0  0  0
 11 61  1  0  0  0  0
 12 13  1  0  0  0  0
 12 14  1  0  0  0  0
 14 15  2  0  0  0  0
 14 62  1  0  0  0  0
 15 16  1  0  0  0  0
 17 18  2  0  0  0  0
 17 19  1  0  0  0  0
 19 20  1  0  0  0  0
 19 63  1  0  0  0  0
 20 21  2  0  0  0  0
 22 23  2  0  0  0  0
 22 27  1  0  0  0  0
 23 24  1  0  0  0  0
 23 64  1  0  0  0  0
 24 25  2  0  0  0  0
 24 65  1  0  0  0  0
 25 26  1  0  0  0  0
 25 66  1  0  0  0  0
 26 27  2  0  0  0  0
 26 67  1  0  0  0  0
 28 29  1  0  0  0  0
 28 68  1  0  0  0  0
 29 30  1  0  0  0  0
 29 69  1  0  0  0  0
 29 70  1  0  0  0  0
 30 31  1  0  0  0  0
 30 71  1  0  0  0  0
 30 72  1  0  0  0  0
 31 32  1  0  0  0  0
 32 33  1  0  0  0  0
 32 73  1  0  0  0  0
 32 74  1  0  0  0  0
 33 34  1  0  0  0  0
 33 75  1  0  0  0  0
 33 76  1  0  0  0  0
 34 35  1  0  0  0  0
 35 36  1  0  0  0  0
 35 77  1  0  0  0  0
 35 78  1  0  0  0  0
 36 37  1  0  0  0  0
 36 79  1  0  0  0  0
 36 80  1  0  0  0  0
 37 38  1  0  0  0  0
 37 81  1  0  0  0  0
 38 39  2  0  0  0  0
 38 43  1  0  0  0  0
 39 40  1  0  0  0  0
 39 82  1  0  0  0  0
 40 41  2  0  0  0  0
 40 83  1  0  0  0  0
 41 42  1  0  0  0  0
 41 84  1  0  0  0  0
 42 43  2  0  0  0  0
 42 55  1  0  0  0  0
 43 44  1  0  0  0  0
 44 45  2  0  0  0  0
 44 46  1  0  0  0  0
 46 47  1  0  0  0  0
 46 55  1  0  0  0  0
 47 48  1  0  0  0  0
 47 53  1  0  0  0  0
 47 85  1  0  0  0  0
 48 49  1  0  0  0  0
 48 86  1  0  0  0  0
 48 87  1  0  0  0  0
 49 50  1  0  0  0  0
 49 88  1  0  0  0  0
 49 89  1  0  0  0  0
 50 51  2  0  0  0  0
 50 52  1  0  0  0  0
 52 53  1  0  0  0  0
 52 90  1  0  0  0  0
 53 54  2  0  0  0  0
 55 56  2  0  0  0  0
M  END
$$$$
protac3895RUN2
  chem.cr 07102519423D
protac3895RUN2
 90 96  0  0  0  0  0  0  0  0999 V2000
   -0.5853    2.3736   -0.5255 O   0  0  0  0  0  0  0  0  0  0  0  0
   -0.0596    1.5128   -1.2153 C   0  0  0  0  0  0  0  0  0  0  0  0
    1.3077    0.9534   -0.9224 C   0  0  0  0  0  0  0  0  0  0  0  0
    2.2812    1.1436   -2.0132 N   0  0  0  0  0  0  0  0  0  0  0  0
    3.2225    2.1753   -1.8934 C   0  0  0  0  0  0  0  0  0  0  0  0
    4.4169    1.8302   -2.4251 C   0  0  0  0  0  0  0  0  0  0  0  0
    5.5019    2.6614   -2.5660 C   0  0  0  0  0  0  0  0  0  0  0  0
    6.6591    2.5593   -3.2773 C   0  0  0  0  0  0  0  0  0  0  0  0
    7.0243    1.5913   -4.1948 C   0  0  0  0  0  0  0  0  0  0  0  0
    6.2260    1.3809   -5.3392 C   0  0  0  0  0  0  0  0  0  0  0  0
    6.6115    0.4355   -6.3107 C   0  0  0  0  0  0  0  0  0  0  0  0
    7.8053   -0.2886   -6.1535 C   0  0  0  0  0  0  0  0  0  0  0  0
    8.2950   -1.4563   -7.3756 Cl  0  0  0  0  0  0  0  0  0  0  0  0
    8.6099   -0.0818   -5.0219 C   0  0  0  0  0  0  0  0  0  0  0  0
    8.2259    0.8510   -4.0427 C   0  0  0  0  0  0  0  0  0  0  0  0
    9.2277    1.0064   -2.5904 Cl  0  0  0  0  0  0  0  0  0  0  0  0
    7.4106    3.6562   -3.1315 C   0  0  0  0  0  0  0  0  0  0  0  0
    8.4628    4.0300   -3.6412 O   0  0  0  0  0  0  0  0  0  0  0  0
    6.7779    4.5221   -2.2645 N   0  0  0  0  0  0  0  0  0  0  0  0
    5.5748    3.8844   -1.9779 C   0  0  0  0  0  0  0  0  0  0  0  0
    4.8170    4.5108   -1.2488 O   0  0  0  0  0  0  0  0  0  0  0  0
    4.2577    0.4877   -2.8142 C   0  0  0  0  0  0  0  0  0  0  0  0
    5.1894   -0.5295   -3.0976 C   0  0  0  0  0  0  0  0  0  0  0  0
    4.7420   -1.8343   -3.3873 C   0  0  0  0  0  0  0  0  0  0  0  0
    3.3729   -2.1611   -3.3124 C   0  0  0  0  0  0  0  0  0  0  0  0
    2.4509   -1.1972   -2.8758 C   0  0  0  0  0  0  0  0  0  0  0  0
    2.9268    0.0985   -2.6145 C   0  0  0  0  0  0  0  0  0  0  0  0
   -0.8569    0.7549   -2.0898 N   0  0  0  0  0  0  0  0  0  0  0  0
   -2.3169    0.9029   -2.1922 C   0  0  0  0  0  0  0  0  0  0  0  0
   -3.0609   -0.1083   -1.2985 C   0  0  0  0  0  0  0  0  0  0  0  0
   -2.8393   -1.4217   -1.8444 O   0  0  0  0  0  0  0  0  0  0  0  0
   -3.2367   -2.5317   -1.0134 C   0  0  0  0  0  0  0  0  0  0  0  0
   -4.7773   -2.5860   -0.8999 C   0  0  0  0  0  0  0  0  0  0  0  0
   -5.1048   -3.6925   -0.0465 O   0  0  0  0  0  0  0  0  0  0  0  0
   -6.4649   -3.7476    0.4243 C   0  0  0  0  0  0  0  0  0  0  0  0
   -6.4080   -4.0560    1.9362 C   0  0  0  0  0  0  0  0  0  0  0  0
   -5.5195   -3.0860    2.5863 N   0  0  0  0  0  0  0  0  0  0  0  0
   -5.4701   -2.7656    3.9337 C   0  0  0  0  0  0  0  0  0  0  0  0
   -6.2118   -3.4430    4.9287 C   0  0  0  0  0  0  0  0  0  0  0  0
   -6.1342   -3.0432    6.2865 C   0  0  0  0  0  0  0  0  0  0  0  0
   -5.3089   -1.9666    6.6764 C   0  0  0  0  0  0  0  0  0  0  0  0
   -4.5685   -1.3167    5.6794 C   0  0  0  0  0  0  0  0  0  0  0  0
   -4.6495   -1.7117    4.3450 C   0  0  0  0  0  0  0  0  0  0  0  0
   -3.8290   -0.8924    3.6051 C   0  0  0  0  0  0  0  0  0  0  0  0
   -3.4941   -1.0063    2.4294 O   0  0  0  0  0  0  0  0  0  0  0  0
   -3.1954   -0.0019    4.4698 N   0  0  0  0  0  0  0  0  0  0  0  0
   -2.3588    1.1291    4.0187 C   0  0  0  0  0  0  0  0  0  0  0  0
   -1.0398    1.2353    4.8099 C   0  0  0  0  0  0  0  0  0  0  0  0
   -0.1652    2.3497    4.1941 C   0  0  0  0  0  0  0  0  0  0  0  0
   -0.9270    3.6473    3.9953 C   0  0  0  0  0  0  0  0  0  0  0  0
   -0.3801    4.7360    3.9132 O   0  0  0  0  0  0  0  0  0  0  0  0
   -2.3166    3.6212    3.8120 N   0  0  0  0  0  0  0  0  0  0  0  0
   -3.0881    2.4653    4.0044 C   0  0  0  0  0  0  0  0  0  0  0  0
   -4.2938    2.5919    3.8382 O   0  0  0  0  0  0  0  0  0  0  0  0
   -3.6932   -0.2567    5.7597 C   0  0  0  0  0  0  0  0  0  0  0  0
   -3.3184    0.3423    6.7619 O   0  0  0  0  0  0  0  0  0  0  0  0
    1.6914    1.4380   -0.0173 H   0  0  0  0  0  0  0  0  0  0  0  0
    1.2180   -0.1141   -0.6925 H   0  0  0  0  0  0  0  0  0  0  0  0
    2.8822    3.1228   -1.4782 H   0  0  0  0  0  0  0  0  0  0  0  0
    5.3059    1.9462   -5.4681 H   0  0  0  0  0  0  0  0  0  0  0  0
    5.9874    0.2706   -7.1843 H   0  0  0  0  0  0  0  0  0  0  0  0
    9.5316   -0.6484   -4.8974 H   0  0  0  0  0  0  0  0  0  0  0  0
    6.8658    5.5232   -2.3334 H   0  0  0  0  0  0  0  0  0  0  0  0
    6.2513   -0.3613   -3.0343 H   0  0  0  0  0  0  0  0  0  0  0  0
    5.4653   -2.6076   -3.6355 H   0  0  0  0  0  0  0  0  0  0  0  0
    3.0454   -3.1761   -3.5218 H   0  0  0  0  0  0  0  0  0  0  0  0
    1.4099   -1.4632   -2.7220 H   0  0  0  0  0  0  0  0  0  0  0  0
   -0.4132    0.0084   -2.6088 H   0  0  0  0  0  0  0  0  0  0  0  0
   -2.6171    0.7566   -3.2371 H   0  0  0  0  0  0  0  0  0  0  0  0
   -2.6069    1.9219   -1.9056 H   0  0  0  0  0  0  0  0  0  0  0  0
   -4.1305    0.1381   -1.2925 H   0  0  0  0  0  0  0  0  0  0  0  0
   -2.6838   -0.0334   -0.2684 H   0  0  0  0  0  0  0  0  0  0  0  0
   -2.7924   -2.4403   -0.0127 H   0  0  0  0  0  0  0  0  0  0  0  0
   -2.8798   -3.4698   -1.4566 H   0  0  0  0  0  0  0  0  0  0  0  0
   -5.2232   -2.7074   -1.8954 H   0  0  0  0  0  0  0  0  0  0  0  0
   -5.1470   -1.6498   -0.4672 H   0  0  0  0  0  0  0  0  0  0  0  0
   -6.9858   -2.7902    0.2711 H   0  0  0  0  0  0  0  0  0  0  0  0
   -7.0313   -4.5312   -0.0952 H   0  0  0  0  0  0  0  0  0  0  0  0
   -7.4149   -3.9953    2.3656 H   0  0  0  0  0  0  0  0  0  0  0  0
   -6.0284   -5.0742    2.0852 H   0  0  0  0  0  0  0  0  0  0  0  0
   -4.9014   -2.5529    1.9822 H   0  0  0  0  0  0  0  0  0  0  0  0
   -6.8510   -4.2762    4.6572 H   0  0  0  0  0  0  0  0  0  0  0  0
   -6.7187   -3.5703    7.0347 H   0  0  0  0  0  0  0  0  0  0  0  0
   -5.2426   -1.6521    7.7166 H   0  0  0  0  0  0  0  0  0  0  0  0
   -2.0892    0.9249    2.9737 H   0  0  0  0  0  0  0  0  0  0  0  0
   -0.5137    0.2742    4.7914 H   0  0  0  0  0  0  0  0  0  0  0  0
   -1.2521    1.4757    5.8593 H   0  0  0  0  0  0  0  0  0  0  0  0
    0.7046    2.5423    4.8347 H   0  0  0  0  0  0  0  0  0  0  0  0
    0.2319    2.0203    3.2238 H   0  0  0  0  0  0  0  0  0  0  0  0
   -2.7925    4.4951    3.6419 H   0  0  0  0  0  0  0  0  0  0  0  0
  1  2  2  0  0  0  0
  2  3  1  0  0  0  0
  2 28  1  0  0  0  0
  3  4  1  0  0  0  0
  3 57  1  0  0  0  0
  3 58  1  0  0  0  0
  4  5  1  0  0  0  0
  4 27  1  0  0  0  0
  5  6  2  0  0  0  0
  5 59  1  0  0  0  0
  6  7  1  0  0  0  0
  6 22  1  0  0  0  0
  7  8  2  0  0  0  0
  7 20  1  0  0  0  0
  8  9  1  0  0  0  0
  8 17  1  0  0  0  0
  9 10  2  0  0  0  0
  9 15  1  0  0  0  0
 10 11  1  0  0  0  0
 10 60  1  0  0  0  0
 11 12  2  0  0  0  0
 11 61  1  0  0  0  0
 12 13  1  0  0  0  0
 12 14  1  0  0  0  0
 14 15  2  0  0  0  0
 14 62  1  0  0  0  0
 15 16  1  0  0  0  0
 17 18  2  0  0  0  0
 17 19  1  0  0  0  0
 19 20  1  0  0  0  0
 19 63  1  0  0  0  0
 20 21  2  0  0  0  0
 22 23  2  0  0  0  0
 22 27  1  0  0  0  0
 23 24  1  0  0  0  0
 23 64  1  0  0  0  0
 24 25  2  0  0  0  0
 24 65  1  0  0  0  0
 25 26  1  0  0  0  0
 25 66  1  0  0  0  0
 26 27  2  0  0  0  0
 26 67  1  0  0  0  0
 28 29  1  0  0  0  0
 28 68  1  0  0  0  0
 29 30  1  0  0  0  0
 29 69  1  0  0  0  0
 29 70  1  0  0  0  0
 30 31  1  0  0  0  0
 30 71  1  0  0  0  0
 30 72  1  0  0  0  0
 31 32  1  0  0  0  0
 32 33  1  0  0  0  0
 32 73  1  0  0  0  0
 32 74  1  0  0  0  0
 33 34  1  0  0  0  0
 33 75  1  0  0  0  0
 33 76  1  0  0  0  0
 34 35  1  0  0  0  0
 35 36  1  0  0  0  0
 35 77  1  0  0  0  0
 35 78  1  0  0  0  0
 36 37  1  0  0  0  0
 36 79  1  0  0  0  0
 36 80  1  0  0  0  0
 37 38  1  0  0  0  0
 37 81  1  0  0  0  0
 38 39  2  0  0  0  0
 38 43  1  0  0  0  0
 39 40  1  0  0  0  0
 39 82  1  0  0  0  0
 40 41  2  0  0  0  0
 40 83  1  0  0  0  0
 41 42  1  0  0  0  0
 41 84  1  0  0  0  0
 42 43  2  0  0  0  0
 42 55  1  0  0  0  0
 43 44  1  0  0  0  0
 44 45  2  0  0  0  0
 44 46  1  0  0  0  0
 46 47  1  0  0  0  0
 46 55  1  0  0  0  0
 47 48  1  0  0  0  0
 47 53  1  0  0  0  0
 47 85  1  0  0  0  0
 48 49  1  0  0  0  0
 48 86  1  0  0  0  0
 48 87  1  0  0  0  0
 49 50  1  0  0  0  0
 49 88  1  0  0  0  0
 49 89  1  0  0  0  0
 50 51  2  0  0  0  0
 50 52  1  0  0  0  0
 52 53  1  0  0  0  0
 52 90  1  0  0  0  0
 53 54  2  0  0  0  0
 55 56  2  0  0  0  0
M  END
$$$$
protac3895RUN2
  chem.cr 07102519423D
protac3895RUN2
 90 96  0  0  0  0  0  0  0  0999 V2000
    2.1846    3.3913    1.7071 O   0  0  0  0  0  0  0  0  0  0  0  0
    1.1694    2.7852    2.0227 C   0  0  0  0  0  0  0  0  0  0  0  0
    0.4969    2.9270    3.3656 C   0  0  0  0  0  0  0  0  0  0  0  0
   -0.9429    3.2295    3.2708 N   0  0  0  0  0  0  0  0  0  0  0  0
   -1.8981    2.4144    3.8921 C   0  0  0  0  0  0  0  0  0  0  0  0
   -3.0137    3.1187    4.1948 C   0  0  0  0  0  0  0  0  0  0  0  0
   -4.2048    2.5963    4.6258 C   0  0  0  0  0  0  0  0  0  0  0  0
   -5.4601    3.1221    4.6998 C   0  0  0  0  0  0  0  0  0  0  0  0
   -5.9040    4.3443    4.2264 C   0  0  0  0  0  0  0  0  0  0  0  0
   -5.7383    4.6525    2.8611 C   0  0  0  0  0  0  0  0  0  0  0  0
   -6.1879    5.8796    2.3448 C   0  0  0  0  0  0  0  0  0  0  0  0
   -6.8247    6.8042    3.1868 C   0  0  0  0  0  0  0  0  0  0  0  0
   -7.3693    8.3491    2.5468 Cl  0  0  0  0  0  0  0  0  0  0  0  0
   -7.0237    6.4984    4.5422 C   0  0  0  0  0  0  0  0  0  0  0  0
   -6.5704    5.2746    5.0647 C   0  0  0  0  0  0  0  0  0  0  0  0
   -6.7855    4.9721    6.7905 Cl  0  0  0  0  0  0  0  0  0  0  0  0
   -6.3360    2.2061    5.1280 C   0  0  0  0  0  0  0  0  0  0  0  0
   -7.5558    2.1953    5.2398 O   0  0  0  0  0  0  0  0  0  0  0  0
   -5.6569    1.0367    5.4072 N   0  0  0  0  0  0  0  0  0  0  0  0
   -4.3480    1.3087    5.0259 C   0  0  0  0  0  0  0  0  0  0  0  0
   -3.5673    0.3675    5.1201 O   0  0  0  0  0  0  0  0  0  0  0  0
   -2.6882    4.4530    3.9001 C   0  0  0  0  0  0  0  0  0  0  0  0
   -3.2360    5.6700    4.3484 C   0  0  0  0  0  0  0  0  0  0  0  0
   -2.6445    6.8895    3.9565 C   0  0  0  0  0  0  0  0  0  0  0  0
   -1.4518    6.9038    3.2033 C   0  0  0  0  0  0  0  0  0  0  0  0
   -0.8133    5.6926    2.8836 C   0  0  0  0  0  0  0  0  0  0  0  0
   -1.4428    4.5012    3.2686 C   0  0  0  0  0  0  0  0  0  0  0  0
    0.7129    1.7458    1.2010 N   0  0  0  0  0  0  0  0  0  0  0  0
    1.5204    1.1727    0.1143 C   0  0  0  0  0  0  0  0  0  0  0  0
    0.8086   -0.0104   -0.5665 C   0  0  0  0  0  0  0  0  0  0  0  0
    0.3634   -0.9032    0.4695 O   0  0  0  0  0  0  0  0  0  0  0  0
   -0.2334   -2.1362    0.0390 C   0  0  0  0  0  0  0  0  0  0  0  0
    0.8748   -3.0608   -0.5013 C   0  0  0  0  0  0  0  0  0  0  0  0
    0.3772   -4.4085   -0.4627 O   0  0  0  0  0  0  0  0  0  0  0  0
    1.1860   -5.3618    0.2495 C   0  0  0  0  0  0  0  0  0  0  0  0
    1.2733   -6.6242   -0.6261 C   0  0  0  0  0  0  0  0  0  0  0  0
    1.9013   -6.2937   -1.9175 N   0  0  0  0  0  0  0  0  0  0  0  0
    3.2505   -5.9940   -2.0872 C   0  0  0  0  0  0  0  0  0  0  0  0
    4.2693   -6.5072   -1.2474 C   0  0  0  0  0  0  0  0  0  0  0  0
    5.6328   -6.1901   -1.4739 C   0  0  0  0  0  0  0  0  0  0  0  0
    6.0074   -5.3462   -2.5394 C   0  0  0  0  0  0  0  0  0  0  0  0
    4.9924   -4.8326   -3.3541 C   0  0  0  0  0  0  0  0  0  0  0  0
    3.6510   -5.1506   -3.1319 C   0  0  0  0  0  0  0  0  0  0  0  0
    2.9061   -4.4978   -4.0836 C   0  0  0  0  0  0  0  0  0  0  0  0
    1.6887   -4.4639   -4.2192 O   0  0  0  0  0  0  0  0  0  0  0  0
    3.7707   -3.7789   -4.9113 N   0  0  0  0  0  0  0  0  0  0  0  0
    3.3543   -2.7474   -5.8800 C   0  0  0  0  0  0  0  0  0  0  0  0
    3.4936   -3.2907   -7.3160 C   0  0  0  0  0  0  0  0  0  0  0  0
    3.1030   -2.1868   -8.3200 C   0  0  0  0  0  0  0  0  0  0  0  0
    3.9046   -0.9234   -8.1026 C   0  0  0  0  0  0  0  0  0  0  0  0
    4.0542   -0.0727   -8.9665 O   0  0  0  0  0  0  0  0  0  0  0  0
    4.2492   -0.5646   -6.7943 N   0  0  0  0  0  0  0  0  0  0  0  0
    4.0848   -1.4181   -5.6931 C   0  0  0  0  0  0  0  0  0  0  0  0
    4.2858   -0.9080   -4.5991 O   0  0  0  0  0  0  0  0  0  0  0  0
    5.0732   -3.9872   -4.4383 C   0  0  0  0  0  0  0  0  0  0  0  0
    6.0528   -3.7814   -5.1472 O   0  0  0  0  0  0  0  0  0  0  0  0
    0.6506    2.0094    3.9453 H   0  0  0  0  0  0  0  0  0  0  0  0
    0.9846    3.7417    3.9128 H   0  0  0  0  0  0  0  0  0  0  0  0
   -1.7105    1.3465    3.9498 H   0  0  0  0  0  0  0  0  0  0  0  0
   -5.2485    3.9402    2.2023 H   0  0  0  0  0  0  0  0  0  0  0  0
   -6.0366    6.1177    1.2942 H   0  0  0  0  0  0  0  0  0  0  0  0
   -7.5176    7.2155    5.1922 H   0  0  0  0  0  0  0  0  0  0  0  0
   -6.0731    0.1212    5.3334 H   0  0  0  0  0  0  0  0  0  0  0  0
   -4.0679    5.6961    5.0342 H   0  0  0  0  0  0  0  0  0  0  0  0
   -3.0953    7.8266    4.2703 H   0  0  0  0  0  0  0  0  0  0  0  0
   -0.9938    7.8500    2.9280 H   0  0  0  0  0  0  0  0  0  0  0  0
    0.1517    5.6818    2.3840 H   0  0  0  0  0  0  0  0  0  0  0  0
   -0.1328    1.2574    1.4678 H   0  0  0  0  0  0  0  0  0  0  0  0
    2.4774    0.8314    0.5325 H   0  0  0  0  0  0  0  0  0  0  0  0
    1.7400    1.9541   -0.6266 H   0  0  0  0  0  0  0  0  0  0  0  0
    1.5052   -0.5041   -1.2567 H   0  0  0  0  0  0  0  0  0  0  0  0
   -0.0469    0.3600   -1.1455 H   0  0  0  0  0  0  0  0  0  0  0  0
   -0.9975   -1.9648   -0.7314 H   0  0  0  0  0  0  0  0  0  0  0  0
   -0.7174   -2.6238    0.8955 H   0  0  0  0  0  0  0  0  0  0  0  0
    1.7730   -2.9382    0.1187 H   0  0  0  0  0  0  0  0  0  0  0  0
    1.1286   -2.7807   -1.5321 H   0  0  0  0  0  0  0  0  0  0  0  0
    2.2012   -4.9844    0.4313 H   0  0  0  0  0  0  0  0  0  0  0  0
    0.7271   -5.6027    1.2175 H   0  0  0  0  0  0  0  0  0  0  0  0
    1.8398   -7.4056   -0.1060 H   0  0  0  0  0  0  0  0  0  0  0  0
    0.2588   -7.0074   -0.7955 H   0  0  0  0  0  0  0  0  0  0  0  0
    1.2922   -5.8771   -2.6160 H   0  0  0  0  0  0  0  0  0  0  0  0
    4.0192   -7.1676   -0.4240 H   0  0  0  0  0  0  0  0  0  0  0  0
    6.3998   -6.6029   -0.8222 H   0  0  0  0  0  0  0  0  0  0  0  0
    7.0484   -5.0920   -2.7229 H   0  0  0  0  0  0  0  0  0  0  0  0
    2.2930   -2.5331   -5.7001 H   0  0  0  0  0  0  0  0  0  0  0  0
    2.8563   -4.1763   -7.4443 H   0  0  0  0  0  0  0  0  0  0  0  0
    4.5333   -3.6074   -7.4889 H   0  0  0  0  0  0  0  0  0  0  0  0
    3.2501   -2.5381   -9.3484 H   0  0  0  0  0  0  0  0  0  0  0  0
    2.0372   -1.9469   -8.2207 H   0  0  0  0  0  0  0  0  0  0  0  0
    4.6720    0.3395   -6.6424 H   0  0  0  0  0  0  0  0  0  0  0  0
  1  2  2  0  0  0  0
  2  3  1  0  0  0  0
  2 28  1  0  0  0  0
  3  4  1  0  0  0  0
  3 57  1  0  0  0  0
  3 58  1  0  0  0  0
  4  5  1  0  0  0  0
  4 27  1  0  0  0  0
  5  6  2  0  0  0  0
  5 59  1  0  0  0  0
  6  7  1  0  0  0  0
  6 22  1  0  0  0  0
  7  8  2  0  0  0  0
  7 20  1  0  0  0  0
  8  9  1  0  0  0  0
  8 17  1  0  0  0  0
  9 10  2  0  0  0  0
  9 15  1  0  0  0  0
 10 11  1  0  0  0  0
 10 60  1  0  0  0  0
 11 12  2  0  0  0  0
 11 61  1  0  0  0  0
 12 13  1  0  0  0  0
 12 14  1  0  0  0  0
 14 15  2  0  0  0  0
 14 62  1  0  0  0  0
 15 16  1  0  0  0  0
 17 18  2  0  0  0  0
 17 19  1  0  0  0  0
 19 20  1  0  0  0  0
 19 63  1  0  0  0  0
 20 21  2  0  0  0  0
 22 23  2  0  0  0  0
 22 27  1  0  0  0  0
 23 24  1  0  0  0  0
 23 64  1  0  0  0  0
 24 25  2  0  0  0  0
 24 65  1  0  0  0  0
 25 26  1  0  0  0  0
 25 66  1  0  0  0  0
 26 27  2  0  0  0  0
 26 67  1  0  0  0  0
 28 29  1  0  0  0  0
 28 68  1  0  0  0  0
 29 30  1  0  0  0  0
 29 69  1  0  0  0  0
 29 70  1  0  0  0  0
 30 31  1  0  0  0  0
 30 71  1  0  0  0  0
 30 72  1  0  0  0  0
 31 32  1  0  0  0  0
 32 33  1  0  0  0  0
 32 73  1  0  0  0  0
 32 74  1  0  0  0  0
 33 34  1  0  0  0  0
 33 75  1  0  0  0  0
 33 76  1  0  0  0  0
 34 35  1  0  0  0  0
 35 36  1  0  0  0  0
 35 77  1  0  0  0  0
 35 78  1  0  0  0  0
 36 37  1  0  0  0  0
 36 79  1  0  0  0  0
 36 80  1  0  0  0  0
 37 38  1  0  0  0  0
 37 81  1  0  0  0  0
 38 39  2  0  0  0  0
 38 43  1  0  0  0  0
 39 40  1  0  0  0  0
 39 82  1  0  0  0  0
 40 41  2  0  0  0  0
 40 83  1  0  0  0  0
 41 42  1  0  0  0  0
 41 84  1  0  0  0  0
 42 43  2  0  0  0  0
 42 55  1  0  0  0  0
 43 44  1  0  0  0  0
 44 45  2  0  0  0  0
 44 46  1  0  0  0  0
 46 47  1  0  0  0  0
 46 55  1  0  0  0  0
 47 48  1  0  0  0  0
 47 53  1  0  0  0  0
 47 85  1  0  0  0  0
 48 49  1  0  0  0  0
 48 86  1  0  0  0  0
 48 87  1  0  0  0  0
 49 50  1  0  0  0  0
 49 88  1  0  0  0  0
 49 89  1  0  0  0  0
 50 51  2  0  0  0  0
 50 52  1  0  0  0  0
 52 53  1  0  0  0  0
 52 90  1  0  0  0  0
 53 54  2  0  0  0  0
 55 56  2  0  0  0  0
M  END
$$$$
protac3895RUN2
  chem.cr 07102519423D
protac3895RUN2
 90 96  0  0  0  0  0  0  0  0999 V2000
   -0.5279   -3.0520   -0.6544 O   0  0  0  0  0  0  0  0  0  0  0  0
   -0.7199   -2.3871    0.3547 C   0  0  0  0  0  0  0  0  0  0  0  0
   -0.6030   -2.9343    1.7608 C   0  0  0  0  0  0  0  0  0  0  0  0
   -1.8936   -2.9758    2.4772 N   0  0  0  0  0  0  0  0  0  0  0  0
   -2.8546   -3.8475    1.9612 C   0  0  0  0  0  0  0  0  0  0  0  0
   -4.0789   -3.2779    1.8830 C   0  0  0  0  0  0  0  0  0  0  0  0
   -5.2342   -3.9371    1.5231 C   0  0  0  0  0  0  0  0  0  0  0  0
   -6.5531   -3.5920    1.5283 C   0  0  0  0  0  0  0  0  0  0  0  0
   -7.1502   -2.4279    1.9635 C   0  0  0  0  0  0  0  0  0  0  0  0
   -7.8227   -1.6161    1.0254 C   0  0  0  0  0  0  0  0  0  0  0  0
   -8.4488   -0.4244    1.4315 C   0  0  0  0  0  0  0  0  0  0  0  0
   -8.4339   -0.0568    2.7853 C   0  0  0  0  0  0  0  0  0  0  0  0
   -9.2045    1.4404    3.2933 Cl  0  0  0  0  0  0  0  0  0  0  0  0
   -7.8112   -0.8834    3.7363 C   0  0  0  0  0  0  0  0  0  0  0  0
   -7.1737   -2.0697    3.3309 C   0  0  0  0  0  0  0  0  0  0  0  0
   -6.4041   -3.0820    4.5544 Cl  0  0  0  0  0  0  0  0  0  0  0  0
   -7.3245   -4.5978    1.1077 C   0  0  0  0  0  0  0  0  0  0  0  0
   -8.5375   -4.7393    0.9991 O   0  0  0  0  0  0  0  0  0  0  0  0
   -6.5219   -5.6671    0.7771 N   0  0  0  0  0  0  0  0  0  0  0  0
   -5.2391   -5.2272    1.0871 C   0  0  0  0  0  0  0  0  0  0  0  0
   -4.3637   -6.0652    0.9137 O   0  0  0  0  0  0  0  0  0  0  0  0
   -3.8704   -1.9479    2.3116 C   0  0  0  0  0  0  0  0  0  0  0  0
   -4.6155   -0.7571    2.1784 C   0  0  0  0  0  0  0  0  0  0  0  0
   -4.1085    0.4534    2.7015 C   0  0  0  0  0  0  0  0  0  0  0  0
   -2.8264    0.5137    3.2813 C   0  0  0  0  0  0  0  0  0  0  0  0
   -2.0186   -0.6331    3.2881 C   0  0  0  0  0  0  0  0  0  0  0  0
   -2.5576   -1.8208    2.7772 C   0  0  0  0  0  0  0  0  0  0  0  0
   -1.0651   -1.0321    0.2341 N   0  0  0  0  0  0  0  0  0  0  0  0
   -0.4792   -0.1602   -0.7939 C   0  0  0  0  0  0  0  0  0  0  0  0
    0.8646    0.4509   -0.3372 C   0  0  0  0  0  0  0  0  0  0  0  0
    1.7430   -0.6250    0.0463 O   0  0  0  0  0  0  0  0  0  0  0  0
    3.0171   -0.6945   -0.6142 C   0  0  0  0  0  0  0  0  0  0  0  0
    2.8251   -1.0764   -2.1112 C   0  0  0  0  0  0  0  0  0  0  0  0
    3.4609   -2.3412   -2.4040 O   0  0  0  0  0  0  0  0  0  0  0  0
    4.8972   -2.4490   -2.3026 C   0  0  0  0  0  0  0  0  0  0  0  0
    5.5963   -1.7630   -3.5053 C   0  0  0  0  0  0  0  0  0  0  0  0
    5.6440   -0.2952   -3.3891 N   0  0  0  0  0  0  0  0  0  0  0  0
    6.1076    0.3864   -2.2714 C   0  0  0  0  0  0  0  0  0  0  0  0
    7.1292   -0.1209   -1.4345 C   0  0  0  0  0  0  0  0  0  0  0  0
    7.5368    0.5820   -0.2734 C   0  0  0  0  0  0  0  0  0  0  0  0
    6.9240    1.8030    0.0766 C   0  0  0  0  0  0  0  0  0  0  0  0
    5.9173    2.2961   -0.7626 C   0  0  0  0  0  0  0  0  0  0  0  0
    5.5307    1.6114   -1.9144 C   0  0  0  0  0  0  0  0  0  0  0  0
    4.5248    2.3322   -2.5133 C   0  0  0  0  0  0  0  0  0  0  0  0
    3.9563    2.1163   -3.5774 O   0  0  0  0  0  0  0  0  0  0  0  0
    4.2845    3.4770   -1.7542 N   0  0  0  0  0  0  0  0  0  0  0  0
    3.1502    4.3997   -1.9451 C   0  0  0  0  0  0  0  0  0  0  0  0
    3.6670    5.7751   -2.4137 C   0  0  0  0  0  0  0  0  0  0  0  0
    2.4927    6.7710   -2.5205 C   0  0  0  0  0  0  0  0  0  0  0  0
    1.7127    6.8463   -1.2292 C   0  0  0  0  0  0  0  0  0  0  0  0
    1.0647    7.8248   -0.8922 O   0  0  0  0  0  0  0  0  0  0  0  0
    1.5225    5.6737   -0.4906 N   0  0  0  0  0  0  0  0  0  0  0  0
    2.2636    4.5010   -0.7071 C   0  0  0  0  0  0  0  0  0  0  0  0
    1.9246    3.5341   -0.0390 O   0  0  0  0  0  0  0  0  0  0  0  0
    5.1475    3.4322   -0.6502 C   0  0  0  0  0  0  0  0  0  0  0  0
    5.3135    4.3880    0.1000 O   0  0  0  0  0  0  0  0  0  0  0  0
   -0.1838   -3.9464    1.7110 H   0  0  0  0  0  0  0  0  0  0  0  0
    0.1060   -2.3136    2.3192 H   0  0  0  0  0  0  0  0  0  0  0  0
   -2.5360   -4.8615    1.7371 H   0  0  0  0  0  0  0  0  0  0  0  0
   -7.8401   -1.9024   -0.0235 H   0  0  0  0  0  0  0  0  0  0  0  0
   -8.9448    0.2086    0.6995 H   0  0  0  0  0  0  0  0  0  0  0  0
   -7.8233   -0.6087    4.7863 H   0  0  0  0  0  0  0  0  0  0  0  0
   -6.8096   -6.6270    0.8760 H   0  0  0  0  0  0  0  0  0  0  0  0
   -5.5425   -0.7152    1.6384 H   0  0  0  0  0  0  0  0  0  0  0  0
   -4.7076    1.3574    2.6310 H   0  0  0  0  0  0  0  0  0  0  0  0
   -2.4457    1.4549    3.6719 H   0  0  0  0  0  0  0  0  0  0  0  0
   -0.9976   -0.5912    3.6531 H   0  0  0  0  0  0  0  0  0  0  0  0
   -1.5679   -0.6128    1.0091 H   0  0  0  0  0  0  0  0  0  0  0  0
   -1.1856    0.6485   -1.0211 H   0  0  0  0  0  0  0  0  0  0  0  0
   -0.3310   -0.7399   -1.7147 H   0  0  0  0  0  0  0  0  0  0  0  0
    0.6910    1.1128    0.5207 H   0  0  0  0  0  0  0  0  0  0  0  0
    1.2921    1.0614   -1.1459 H   0  0  0  0  0  0  0  0  0  0  0  0
    3.6264   -1.4543   -0.1128 H   0  0  0  0  0  0  0  0  0  0  0  0
    3.5470    0.2637   -0.5324 H   0  0  0  0  0  0  0  0  0  0  0  0
    3.2021   -0.2766   -2.7550 H   0  0  0  0  0  0  0  0  0  0  0  0
    1.7544   -1.1680   -2.3278 H   0  0  0  0  0  0  0  0  0  0  0  0
    5.2694   -2.0567   -1.3501 H   0  0  0  0  0  0  0  0  0  0  0  0
    5.1633   -3.5127   -2.3305 H   0  0  0  0  0  0  0  0  0  0  0  0
    6.6166   -2.1558   -3.5945 H   0  0  0  0  0  0  0  0  0  0  0  0
    5.0634   -2.0405   -4.4240 H   0  0  0  0  0  0  0  0  0  0  0  0
    4.9800    0.2275   -3.9500 H   0  0  0  0  0  0  0  0  0  0  0  0
    7.6081   -1.0642   -1.6773 H   0  0  0  0  0  0  0  0  0  0  0  0
    8.3199    0.1716    0.3592 H   0  0  0  0  0  0  0  0  0  0  0  0
    7.2123    2.3455    0.9741 H   0  0  0  0  0  0  0  0  0  0  0  0
    2.5143    3.9879   -2.7399 H   0  0  0  0  0  0  0  0  0  0  0  0
    4.1843    5.6732   -3.3767 H   0  0  0  0  0  0  0  0  0  0  0  0
    4.4058    6.1541   -1.6916 H   0  0  0  0  0  0  0  0  0  0  0  0
    2.8684    7.7702   -2.7755 H   0  0  0  0  0  0  0  0  0  0  0  0
    1.8156    6.4766   -3.3317 H   0  0  0  0  0  0  0  0  0  0  0  0
    0.8951    5.7020    0.2996 H   0  0  0  0  0  0  0  0  0  0  0  0
  1  2  2  0  0  0  0
  2  3  1  0  0  0  0
  2 28  1  0  0  0  0
  3  4  1  0  0  0  0
  3 57  1  0  0  0  0
  3 58  1  0  0  0  0
  4  5  1  0  0  0  0
  4 27  1  0  0  0  0
  5  6  2  0  0  0  0
  5 59  1  0  0  0  0
  6  7  1  0  0  0  0
  6 22  1  0  0  0  0
  7  8  2  0  0  0  0
  7 20  1  0  0  0  0
  8  9  1  0  0  0  0
  8 17  1  0  0  0  0
  9 10  2  0  0  0  0
  9 15  1  0  0  0  0
 10 11  1  0  0  0  0
 10 60  1  0  0  0  0
 11 12  2  0  0  0  0
 11 61  1  0  0  0  0
 12 13  1  0  0  0  0
 12 14  1  0  0  0  0
 14 15  2  0  0  0  0
 14 62  1  0  0  0  0
 15 16  1  0  0  0  0
 17 18  2  0  0  0  0
 17 19  1  0  0  0  0
 19 20  1  0  0  0  0
 19 63  1  0  0  0  0
 20 21  2  0  0  0  0
 22 23  2  0  0  0  0
 22 27  1  0  0  0  0
 23 24  1  0  0  0  0
 23 64  1  0  0  0  0
 24 25  2  0  0  0  0
 24 65  1  0  0  0  0
 25 26  1  0  0  0  0
 25 66  1  0  0  0  0
 26 27  2  0  0  0  0
 26 67  1  0  0  0  0
 28 29  1  0  0  0  0
 28 68  1  0  0  0  0
 29 30  1  0  0  0  0
 29 69  1  0  0  0  0
 29 70  1  0  0  0  0
 30 31  1  0  0  0  0
 30 71  1  0  0  0  0
 30 72  1  0  0  0  0
 31 32  1  0  0  0  0
 32 33  1  0  0  0  0
 32 73  1  0  0  0  0
 32 74  1  0  0  0  0
 33 34  1  0  0  0  0
 33 75  1  0  0  0  0
 33 76  1  0  0  0  0
 34 35  1  0  0  0  0
 35 36  1  0  0  0  0
 35 77  1  0  0  0  0
 35 78  1  0  0  0  0
 36 37  1  0  0  0  0
 36 79  1  0  0  0  0
 36 80  1  0  0  0  0
 37 38  1  0  0  0  0
 37 81  1  0  0  0  0
 38 39  2  0  0  0  0
 38 43  1  0  0  0  0
 39 40  1  0  0  0  0
 39 82  1  0  0  0  0
 40 41  2  0  0  0  0
 40 83  1  0  0  0  0
 41 42  1  0  0  0  0
 41 84  1  0  0  0  0
 42 43  2  0  0  0  0
 42 55  1  0  0  0  0
 43 44  1  0  0  0  0
 44 45  2  0  0  0  0
 44 46  1  0  0  0  0
 46 47  1  0  0  0  0
 46 55  1  0  0  0  0
 47 48  1  0  0  0  0
 47 53  1  0  0  0  0
 47 85  1  0  0  0  0
 48 49  1  0  0  0  0
 48 86  1  0  0  0  0
 48 87  1  0  0  0  0
 49 50  1  0  0  0  0
 49 88  1  0  0  0  0
 49 89  1  0  0  0  0
 50 51  2  0  0  0  0
 50 52  1  0  0  0  0
 52 53  1  0  0  0  0
 52 90  1  0  0  0  0
 53 54  2  0  0  0  0
 55 56  2  0  0  0  0
M  END
$$$$
protac3895RUN2
  chem.cr 07102519423D
protac3895RUN2
 90 96  0  0  0  0  0  0  0  0999 V2000
   -0.7247   -6.7511   -0.5426 O   0  0  0  0  0  0  0  0  0  0  0  0
   -1.0079   -5.7668    0.1261 C   0  0  0  0  0  0  0  0  0  0  0  0
   -1.9354   -5.8199    1.3209 C   0  0  0  0  0  0  0  0  0  0  0  0
   -2.8525   -4.6660    1.4475 N   0  0  0  0  0  0  0  0  0  0  0  0
   -4.0628   -4.5774    0.7555 C   0  0  0  0  0  0  0  0  0  0  0  0
   -4.5432   -3.3114    0.7829 C   0  0  0  0  0  0  0  0  0  0  0  0
   -5.8039   -2.9318    0.3854 C   0  0  0  0  0  0  0  0  0  0  0  0
   -6.5257   -1.7879    0.5605 C   0  0  0  0  0  0  0  0  0  0  0  0
   -6.2043   -0.6512    1.2791 C   0  0  0  0  0  0  0  0  0  0  0  0
   -6.1669    0.5908    0.6080 C   0  0  0  0  0  0  0  0  0  0  0  0
   -5.8652    1.7730    1.3038 C   0  0  0  0  0  0  0  0  0  0  0  0
   -5.6171    1.7282    2.6826 C   0  0  0  0  0  0  0  0  0  0  0  0
   -5.2295    3.2066    3.5527 Cl  0  0  0  0  0  0  0  0  0  0  0  0
   -5.6943    0.5075    3.3708 C   0  0  0  0  0  0  0  0  0  0  0  0
   -5.9989   -0.6783    2.6798 C   0  0  0  0  0  0  0  0  0  0  0  0
   -6.1363   -2.1773    3.6003 Cl  0  0  0  0  0  0  0  0  0  0  0  0
   -7.7333   -1.8846   -0.0069 C   0  0  0  0  0  0  0  0  0  0  0  0
   -8.6866   -1.1211   -0.0921 O   0  0  0  0  0  0  0  0  0  0  0  0
   -7.8581   -3.1440   -0.5545 N   0  0  0  0  0  0  0  0  0  0  0  0
   -6.6387   -3.7570   -0.2972 C   0  0  0  0  0  0  0  0  0  0  0  0
   -6.5232   -4.8949   -0.7381 O   0  0  0  0  0  0  0  0  0  0  0  0
   -3.5148   -2.5475    1.3723 C   0  0  0  0  0  0  0  0  0  0  0  0
   -3.2336   -1.1648    1.3682 C   0  0  0  0  0  0  0  0  0  0  0  0
   -2.0714   -0.6830    2.0072 C   0  0  0  0  0  0  0  0  0  0  0  0
   -1.1401   -1.5735    2.5804 C   0  0  0  0  0  0  0  0  0  0  0  0
   -1.3411   -2.9596    2.4696 C   0  0  0  0  0  0  0  0  0  0  0  0
   -2.5108   -3.4033    1.8404 C   0  0  0  0  0  0  0  0  0  0  0  0
   -0.2444   -4.6002   -0.0229 N   0  0  0  0  0  0  0  0  0  0  0  0
    0.8905   -4.4657   -0.9470 C   0  0  0  0  0  0  0  0  0  0  0  0
    0.9760   -3.0301   -1.5023 C   0  0  0  0  0  0  0  0  0  0  0  0
    2.2824   -2.5145   -1.2131 O   0  0  0  0  0  0  0  0  0  0  0  0
    3.1674   -2.4012   -2.3360 C   0  0  0  0  0  0  0  0  0  0  0  0
    4.5044   -1.8517   -1.8135 C   0  0  0  0  0  0  0  0  0  0  0  0
    5.0798   -1.0479   -2.8510 O   0  0  0  0  0  0  0  0  0  0  0  0
    6.3799   -0.5180   -2.5647 C   0  0  0  0  0  0  0  0  0  0  0  0
    6.5299    0.7808   -3.3773 C   0  0  0  0  0  0  0  0  0  0  0  0
    5.6213    1.8100   -2.8388 N   0  0  0  0  0  0  0  0  0  0  0  0
    5.9350    2.7677   -1.8766 C   0  0  0  0  0  0  0  0  0  0  0  0
    7.2644    3.1150   -1.5243 C   0  0  0  0  0  0  0  0  0  0  0  0
    7.5291    4.1010   -0.5420 C   0  0  0  0  0  0  0  0  0  0  0  0
    6.4720    4.7537    0.1234 C   0  0  0  0  0  0  0  0  0  0  0  0
    5.1635    4.3990   -0.2230 C   0  0  0  0  0  0  0  0  0  0  0  0
    4.9021    3.4414   -1.2057 C   0  0  0  0  0  0  0  0  0  0  0  0
    3.5341    3.3287   -1.3271 C   0  0  0  0  0  0  0  0  0  0  0  0
    2.8921    2.7329   -2.1850 O   0  0  0  0  0  0  0  0  0  0  0  0
    2.9315    4.2383   -0.4520 N   0  0  0  0  0  0  0  0  0  0  0  0
    1.4890    4.2943   -0.1422 C   0  0  0  0  0  0  0  0  0  0  0  0
    0.9275    5.7093   -0.4086 C   0  0  0  0  0  0  0  0  0  0  0  0
   -0.5719    5.7540   -0.0452 C   0  0  0  0  0  0  0  0  0  0  0  0
   -0.8297    5.2474    1.3570 C   0  0  0  0  0  0  0  0  0  0  0  0
   -1.8161    5.5573    2.0084 O   0  0  0  0  0  0  0  0  0  0  0  0
   -0.0374    4.2074    1.8596 N   0  0  0  0  0  0  0  0  0  0  0  0
    1.1745    3.8148    1.2716 C   0  0  0  0  0  0  0  0  0  0  0  0
    1.7410    2.8709    1.8071 O   0  0  0  0  0  0  0  0  0  0  0  0
    3.9624    4.8685    0.2574 C   0  0  0  0  0  0  0  0  0  0  0  0
    3.7670    5.7509    1.0847 O   0  0  0  0  0  0  0  0  0  0  0  0
   -2.5336   -6.7363    1.2499 H   0  0  0  0  0  0  0  0  0  0  0  0
   -1.3324   -5.9006    2.2329 H   0  0  0  0  0  0  0  0  0  0  0  0
   -4.5232   -5.4958    0.4031 H   0  0  0  0  0  0  0  0  0  0  0  0
   -6.3642    0.6324   -0.4601 H   0  0  0  0  0  0  0  0  0  0  0  0
   -5.8262    2.7222    0.7776 H   0  0  0  0  0  0  0  0  0  0  0  0
   -5.5241    0.4788    4.4428 H   0  0  0  0  0  0  0  0  0  0  0  0
   -8.5033   -3.4056   -1.2820 H   0  0  0  0  0  0  0  0  0  0  0  0
   -3.8533   -0.4566    0.8455 H   0  0  0  0  0  0  0  0  0  0  0  0
   -1.8766    0.3868    2.0328 H   0  0  0  0  0  0  0  0  0  0  0  0
   -0.2439   -1.1871    3.0605 H   0  0  0  0  0  0  0  0  0  0  0  0
   -0.6000   -3.6604    2.8418 H   0  0  0  0  0  0  0  0  0  0  0  0
   -0.5340   -3.7852    0.5073 H   0  0  0  0  0  0  0  0  0  0  0  0
    0.7816   -5.1783   -1.7760 H   0  0  0  0  0  0  0  0  0  0  0  0
    1.8135   -4.7191   -0.4078 H   0  0  0  0  0  0  0  0  0  0  0  0
    0.2168   -2.3981   -1.0243 H   0  0  0  0  0  0  0  0  0  0  0  0
    0.7653   -3.0330   -2.5802 H   0  0  0  0  0  0  0  0  0  0  0  0
    2.7506   -1.7032   -3.0749 H   0  0  0  0  0  0  0  0  0  0  0  0
    3.3301   -3.3739   -2.8189 H   0  0  0  0  0  0  0  0  0  0  0  0
    5.1603   -2.6845   -1.5345 H   0  0  0  0  0  0  0  0  0  0  0  0
    4.3224   -1.2374   -0.9214 H   0  0  0  0  0  0  0  0  0  0  0  0
    6.4946   -0.2933   -1.4954 H   0  0  0  0  0  0  0  0  0  0  0  0
    7.1549   -1.2418   -2.8491 H   0  0  0  0  0  0  0  0  0  0  0  0
    7.5727    1.1088   -3.3623 H   0  0  0  0  0  0  0  0  0  0  0  0
    6.2709    0.5779   -4.4239 H   0  0  0  0  0  0  0  0  0  0  0  0
    4.6270    1.6564   -2.9753 H   0  0  0  0  0  0  0  0  0  0  0  0
    8.1070    2.6391   -2.0103 H   0  0  0  0  0  0  0  0  0  0  0  0
    8.5562    4.3559   -0.2938 H   0  0  0  0  0  0  0  0  0  0  0  0
    6.6612    5.5084    0.8826 H   0  0  0  0  0  0  0  0  0  0  0  0
    0.9764    3.5974   -0.8197 H   0  0  0  0  0  0  0  0  0  0  0  0
    1.0826    5.9840   -1.4618 H   0  0  0  0  0  0  0  0  0  0  0  0
    1.4656    6.4459    0.2014 H   0  0  0  0  0  0  0  0  0  0  0  0
   -0.9515    6.7810   -0.1329 H   0  0  0  0  0  0  0  0  0  0  0  0
   -1.1472    5.1439   -0.7531 H   0  0  0  0  0  0  0  0  0  0  0  0
   -0.2897    3.7984    2.7463 H   0  0  0  0  0  0  0  0  0  0  0  0
  1  2  2  0  0  0  0
  2  3  1  0  0  0  0
  2 28  1  0  0  0  0
  3  4  1  0  0  0  0
  3 57  1  0  0  0  0
  3 58  1  0  0  0  0
  4  5  1  0  0  0  0
  4 27  1  0  0  0  0
  5  6  2  0  0  0  0
  5 59  1  0  0  0  0
  6  7  1  0  0  0  0
  6 22  1  0  0  0  0
  7  8  2  0  0  0  0
  7 20  1  0  0  0  0
  8  9  1  0  0  0  0
  8 17  1  0  0  0  0
  9 10  2  0  0  0  0
  9 15  1  0  0  0  0
 10 11  1  0  0  0  0
 10 60  1  0  0  0  0
 11 12  2  0  0  0  0
 11 61  1  0  0  0  0
 12 13  1  0  0  0  0
 12 14  1  0  0  0  0
 14 15  2  0  0  0  0
 14 62  1  0  0  0  0
 15 16  1  0  0  0  0
 17 18  2  0  0  0  0
 17 19  1  0  0  0  0
 19 20  1  0  0  0  0
 19 63  1  0  0  0  0
 20 21  2  0  0  0  0
 22 23  2  0  0  0  0
 22 27  1  0  0  0  0
 23 24  1  0  0  0  0
 23 64  1  0  0  0  0
 24 25  2  0  0  0  0
 24 65  1  0  0  0  0
 25 26  1  0  0  0  0
 25 66  1  0  0  0  0
 26 27  2  0  0  0  0
 26 67  1  0  0  0  0
 28 29  1  0  0  0  0
 28 68  1  0  0  0  0
 29 30  1  0  0  0  0
 29 69  1  0  0  0  0
 29 70  1  0  0  0  0
 30 31  1  0  0  0  0
 30 71  1  0  0  0  0
 30 72  1  0  0  0  0
 31 32  1  0  0  0  0
 32 33  1  0  0  0  0
 32 73  1  0  0  0  0
 32 74  1  0  0  0  0
 33 34  1  0  0  0  0
 33 75  1  0  0  0  0
 33 76  1  0  0  0  0
 34 35  1  0  0  0  0
 35 36  1  0  0  0  0
 35 77  1  0  0  0  0
 35 78  1  0  0  0  0
 36 37  1  0  0  0  0
 36 79  1  0  0  0  0
 36 80  1  0  0  0  0
 37 38  1  0  0  0  0
 37 81  1  0  0  0  0
 38 39  2  0  0  0  0
 38 43  1  0  0  0  0
 39 40  1  0  0  0  0
 39 82  1  0  0  0  0
 40 41  2  0  0  0  0
 40 83  1  0  0  0  0
 41 42  1  0  0  0  0
 41 84  1  0  0  0  0
 42 43  2  0  0  0  0
 42 55  1  0  0  0  0
 43 44  1  0  0  0  0
 44 45  2  0  0  0  0
 44 46  1  0  0  0  0
 46 47  1  0  0  0  0
 46 55  1  0  0  0  0
 47 48  1  0  0  0  0
 47 53  1  0  0  0  0
 47 85  1  0  0  0  0
 48 49  1  0  0  0  0
 48 86  1  0  0  0  0
 48 87  1  0  0  0  0
 49 50  1  0  0  0  0
 49 88  1  0  0  0  0
 49 89  1  0  0  0  0
 50 51  2  0  0  0  0
 50 52  1  0  0  0  0
 52 53  1  0  0  0  0
 52 90  1  0  0  0  0
 53 54  2  0  0  0  0
 55 56  2  0  0  0  0
M  END
$$$$
protac3895RUN2
  chem.cr 07102519423D
protac3895RUN2
 90 96  0  0  0  0  0  0  0  0999 V2000
   -0.5340   -7.5504   -1.6407 O   0  0  0  0  0  0  0  0  0  0  0  0
   -0.3220   -6.6159   -0.8796 C   0  0  0  0  0  0  0  0  0  0  0  0
   -1.2792   -6.2079    0.2101 C   0  0  0  0  0  0  0  0  0  0  0  0
   -1.9063   -4.8938   -0.0163 N   0  0  0  0  0  0  0  0  0  0  0  0
   -3.1036   -4.8073   -0.7400 C   0  0  0  0  0  0  0  0  0  0  0  0
   -3.9175   -3.8593   -0.2224 C   0  0  0  0  0  0  0  0  0  0  0  0
   -5.2309   -3.6532   -0.5576 C   0  0  0  0  0  0  0  0  0  0  0  0
   -6.2367   -2.9706    0.0544 C   0  0  0  0  0  0  0  0  0  0  0  0
   -6.2398   -2.3568    1.2974 C   0  0  0  0  0  0  0  0  0  0  0  0
   -6.6027   -0.9937    1.3932 C   0  0  0  0  0  0  0  0  0  0  0  0
   -6.6302   -0.3414    2.6396 C   0  0  0  0  0  0  0  0  0  0  0  0
   -6.3205   -1.0535    3.8078 C   0  0  0  0  0  0  0  0  0  0  0  0
   -6.3594   -0.2398    5.3663 Cl  0  0  0  0  0  0  0  0  0  0  0  0
   -6.0046   -2.4188    3.7332 C   0  0  0  0  0  0  0  0  0  0  0  0
   -5.9752   -3.0754    2.4900 C   0  0  0  0  0  0  0  0  0  0  0  0
   -5.6411   -4.8079    2.4712 Cl  0  0  0  0  0  0  0  0  0  0  0  0
   -7.3798   -3.0798   -0.6342 C   0  0  0  0  0  0  0  0  0  0  0  0
   -8.5234   -2.7023   -0.4270 O   0  0  0  0  0  0  0  0  0  0  0  0
   -7.1422   -3.8323   -1.7678 N   0  0  0  0  0  0  0  0  0  0  0  0
   -5.8112   -4.2165   -1.6471 C   0  0  0  0  0  0  0  0  0  0  0  0
   -5.3970   -4.9568   -2.5306 O   0  0  0  0  0  0  0  0  0  0  0  0
   -3.1455   -3.2170    0.7603 C   0  0  0  0  0  0  0  0  0  0  0  0
   -3.2669   -1.9505    1.3615 C   0  0  0  0  0  0  0  0  0  0  0  0
   -2.2679   -1.5027    2.2515 C   0  0  0  0  0  0  0  0  0  0  0  0
   -1.1074   -2.2708    2.4799 C   0  0  0  0  0  0  0  0  0  0  0  0
   -0.9114   -3.4706    1.7741 C   0  0  0  0  0  0  0  0  0  0  0  0
   -1.9353   -3.8984    0.9193 C   0  0  0  0  0  0  0  0  0  0  0  0
    0.9342   -5.9885   -0.8823 N   0  0  0  0  0  0  0  0  0  0  0  0
    2.0585   -6.4221   -1.7298 C   0  0  0  0  0  0  0  0  0  0  0  0
    2.3969   -5.3549   -2.7819 C   0  0  0  0  0  0  0  0  0  0  0  0
    2.9357   -4.2171   -2.0987 O   0  0  0  0  0  0  0  0  0  0  0  0
    3.2066   -3.0982   -2.9503 C   0  0  0  0  0  0  0  0  0  0  0  0
    3.7527   -1.9680   -2.0700 C   0  0  0  0  0  0  0  0  0  0  0  0
    3.6972   -0.7644   -2.8428 O   0  0  0  0  0  0  0  0  0  0  0  0
    3.9727    0.4280   -2.1051 C   0  0  0  0  0  0  0  0  0  0  0  0
    3.6497    1.6156   -3.0225 C   0  0  0  0  0  0  0  0  0  0  0  0
    3.4131    2.8190   -2.2090 N   0  0  0  0  0  0  0  0  0  0  0  0
    4.2592    3.9111   -2.0476 C   0  0  0  0  0  0  0  0  0  0  0  0
    5.3855    4.1653   -2.8671 C   0  0  0  0  0  0  0  0  0  0  0  0
    6.1960    5.3093   -2.6544 C   0  0  0  0  0  0  0  0  0  0  0  0
    5.8963    6.2219   -1.6200 C   0  0  0  0  0  0  0  0  0  0  0  0
    4.7835    5.9561   -0.8111 C   0  0  0  0  0  0  0  0  0  0  0  0
    3.9866    4.8311   -1.0265 C   0  0  0  0  0  0  0  0  0  0  0  0
    2.9675    4.8537   -0.1031 C   0  0  0  0  0  0  0  0  0  0  0  0
    1.9469    4.1764   -0.0833 O   0  0  0  0  0  0  0  0  0  0  0  0
    3.1026    6.0050    0.6734 N   0  0  0  0  0  0  0  0  0  0  0  0
    2.1706    6.4250    1.7397 C   0  0  0  0  0  0  0  0  0  0  0  0
    1.2987    7.6022    1.2584 C   0  0  0  0  0  0  0  0  0  0  0  0
    0.3172    8.0087    2.3796 C   0  0  0  0  0  0  0  0  0  0  0  0
    1.0247    8.2670    3.6937 C   0  0  0  0  0  0  0  0  0  0  0  0
    0.5164    8.8968    4.6092 O   0  0  0  0  0  0  0  0  0  0  0  0
    2.1687    7.5206    4.0027 N   0  0  0  0  0  0  0  0  0  0  0  0
    2.8636    6.7499    3.0580 C   0  0  0  0  0  0  0  0  0  0  0  0
    3.8293    6.1324    3.4861 O   0  0  0  0  0  0  0  0  0  0  0  0
    4.2597    6.6708    0.2448 C   0  0  0  0  0  0  0  0  0  0  0  0
    4.4882    7.8384    0.5441 O   0  0  0  0  0  0  0  0  0  0  0  0
   -2.0675   -6.9678    0.2812 H   0  0  0  0  0  0  0  0  0  0  0  0
   -0.7547   -6.2011    1.1715 H   0  0  0  0  0  0  0  0  0  0  0  0
   -3.2999   -5.5552   -1.5050 H   0  0  0  0  0  0  0  0  0  0  0  0
   -6.8562   -0.4404    0.4931 H   0  0  0  0  0  0  0  0  0  0  0  0
   -6.9002    0.7106    2.6988 H   0  0  0  0  0  0  0  0  0  0  0  0
   -5.7928   -2.9734    4.6431 H   0  0  0  0  0  0  0  0  0  0  0  0
   -7.8416   -4.4041   -2.2162 H   0  0  0  0  0  0  0  0  0  0  0  0
   -4.0759   -1.2826    1.1115 H   0  0  0  0  0  0  0  0  0  0  0  0
   -2.3778   -0.5364    2.7352 H   0  0  0  0  0  0  0  0  0  0  0  0
   -0.3355   -1.8997    3.1499 H   0  0  0  0  0  0  0  0  0  0  0  0
    0.0198   -4.0216    1.8621 H   0  0  0  0  0  0  0  0  0  0  0  0
    1.0230   -5.1052   -0.3939 H   0  0  0  0  0  0  0  0  0  0  0  0
    1.8054   -7.3618   -2.2415 H   0  0  0  0  0  0  0  0  0  0  0  0
    2.9409   -6.6166   -1.1040 H   0  0  0  0  0  0  0  0  0  0  0  0
    1.4837   -5.0866   -3.3310 H   0  0  0  0  0  0  0  0  0  0  0  0
    3.1268   -5.7587   -3.4957 H   0  0  0  0  0  0  0  0  0  0  0  0
    2.2845   -2.7622   -3.4427 H   0  0  0  0  0  0  0  0  0  0  0  0
    3.9414   -3.3577   -3.7223 H   0  0  0  0  0  0  0  0  0  0  0  0
    4.7829   -2.1933   -1.7624 H   0  0  0  0  0  0  0  0  0  0  0  0
    3.1261   -1.8816   -1.1729 H   0  0  0  0  0  0  0  0  0  0  0  0
    3.3368    0.4730   -1.2093 H   0  0  0  0  0  0  0  0  0  0  0  0
    5.0244    0.4708   -1.7913 H   0  0  0  0  0  0  0  0  0  0  0  0
    4.4611    1.7478   -3.7459 H   0  0  0  0  0  0  0  0  0  0  0  0
    2.7378    1.3880   -3.5893 H   0  0  0  0  0  0  0  0  0  0  0  0
    2.6200    2.7996   -1.5758 H   0  0  0  0  0  0  0  0  0  0  0  0
    5.6400    3.4924   -3.6788 H   0  0  0  0  0  0  0  0  0  0  0  0
    7.0546    5.4884   -3.2988 H   0  0  0  0  0  0  0  0  0  0  0  0
    6.5056    7.1069   -1.4542 H   0  0  0  0  0  0  0  0  0  0  0  0
    1.5076    5.5747    1.9514 H   0  0  0  0  0  0  0  0  0  0  0  0
    0.7549    7.3250    0.3453 H   0  0  0  0  0  0  0  0  0  0  0  0
    1.9422    8.4561    1.0063 H   0  0  0  0  0  0  0  0  0  0  0  0
   -0.2378    8.9091    2.0851 H   0  0  0  0  0  0  0  0  0  0  0  0
   -0.4266    7.2168    2.5343 H   0  0  0  0  0  0  0  0  0  0  0  0
    2.5600    7.6028    4.9290 H   0  0  0  0  0  0  0  0  0  0  0  0
  1  2  2  0  0  0  0
  2  3  1  0  0  0  0
  2 28  1  0  0  0  0
  3  4  1  0  0  0  0
  3 57  1  0  0  0  0
  3 58  1  0  0  0  0
  4  5  1  0  0  0  0
  4 27  1  0  0  0  0
  5  6  2  0  0  0  0
  5 59  1  0  0  0  0
  6  7  1  0  0  0  0
  6 22  1  0  0  0  0
  7  8  2  0  0  0  0
  7 20  1  0  0  0  0
  8  9  1  0  0  0  0
  8 17  1  0  0  0  0
  9 10  2  0  0  0  0
  9 15  1  0  0  0  0
 10 11  1  0  0  0  0
 10 60  1  0  0  0  0
 11 12  2  0  0  0  0
 11 61  1  0  0  0  0
 12 13  1  0  0  0  0
 12 14  1  0  0  0  0
 14 15  2  0  0  0  0
 14 62  1  0  0  0  0
 15 16  1  0  0  0  0
 17 18  2  0  0  0  0
 17 19  1  0  0  0  0
 19 20  1  0  0  0  0
 19 63  1  0  0  0  0
 20 21  2  0  0  0  0
 22 23  2  0  0  0  0
 22 27  1  0  0  0  0
 23 24  1  0  0  0  0
 23 64  1  0  0  0  0
 24 25  2  0  0  0  0
 24 65  1  0  0  0  0
 25 26  1  0  0  0  0
 25 66  1  0  0  0  0
 26 27  2  0  0  0  0
 26 67  1  0  0  0  0
 28 29  1  0  0  0  0
 28 68  1  0  0  0  0
 29 30  1  0  0  0  0
 29 69  1  0  0  0  0
 29 70  1  0  0  0  0
 30 31  1  0  0  0  0
 30 71  1  0  0  0  0
 30 72  1  0  0  0  0
 31 32  1  0  0  0  0
 32 33  1  0  0  0  0
 32 73  1  0  0  0  0
 32 74  1  0  0  0  0
 33 34  1  0  0  0  0
 33 75  1  0  0  0  0
 33 76  1  0  0  0  0
 34 35  1  0  0  0  0
 35 36  1  0  0  0  0
 35 77  1  0  0  0  0
 35 78  1  0  0  0  0
 36 37  1  0  0  0  0
 36 79  1  0  0  0  0
 36 80  1  0  0  0  0
 37 38  1  0  0  0  0
 37 81  1  0  0  0  0
 38 39  2  0  0  0  0
 38 43  1  0  0  0  0
 39 40  1  0  0  0  0
 39 82  1  0  0  0  0
 40 41  2  0  0  0  0
 40 83  1  0  0  0  0
 41 42  1  0  0  0  0
 41 84  1  0  0  0  0
 42 43  2  0  0  0  0
 42 55  1  0  0  0  0
 43 44  1  0  0  0  0
 44 45  2  0  0  0  0
 44 46  1  0  0  0  0
 46 47  1  0  0  0  0
 46 55  1  0  0  0  0
 47 48  1  0  0  0  0
 47 53  1  0  0  0  0
 47 85  1  0  0  0  0
 48 49  1  0  0  0  0
 48 86  1  0  0  0  0
 48 87  1  0  0  0  0
 49 50  1  0  0  0  0
 49 88  1  0  0  0  0
 49 89  1  0  0  0  0
 50 51  2  0  0  0  0
 50 52  1  0  0  0  0
 52 53  1  0  0  0  0
 52 90  1  0  0  0  0
 53 54  2  0  0  0  0
 55 56  2  0  0  0  0
M  END
$$$$
protac3895RUN2
  chem.cr 07102519423D
protac3895RUN2
 90 96  0  0  0  0  0  0  0  0999 V2000
    1.0481   -7.9685    0.1813 O   0  0  0  0  0  0  0  0  0  0  0  0
    0.2185   -7.0830    0.0254 C   0  0  0  0  0  0  0  0  0  0  0  0
   -1.2236   -7.2250    0.4550 C   0  0  0  0  0  0  0  0  0  0  0  0
   -2.1100   -6.1234    0.0301 N   0  0  0  0  0  0  0  0  0  0  0  0
   -3.1387   -6.3133   -0.9016 C   0  0  0  0  0  0  0  0  0  0  0  0
   -4.1722   -5.4816   -0.6420 C   0  0  0  0  0  0  0  0  0  0  0  0
   -5.4023   -5.5180   -1.2399 C   0  0  0  0  0  0  0  0  0  0  0  0
   -6.6036   -4.9966   -0.8759 C   0  0  0  0  0  0  0  0  0  0  0  0
   -6.9442   -4.3780    0.3170 C   0  0  0  0  0  0  0  0  0  0  0  0
   -7.5458   -3.1001    0.2884 C   0  0  0  0  0  0  0  0  0  0  0  0
   -7.9293   -2.4628    1.4810 C   0  0  0  0  0  0  0  0  0  0  0  0
   -7.7252   -3.1013    2.7140 C   0  0  0  0  0  0  0  0  0  0  0  0
   -8.2041   -2.3090    4.2086 Cl  0  0  0  0  0  0  0  0  0  0  0  0
   -7.1686   -4.3875    2.7545 C   0  0  0  0  0  0  0  0  0  0  0  0
   -6.7924   -5.0341    1.5657 C   0  0  0  0  0  0  0  0  0  0  0  0
   -6.1811   -6.6857    1.6830 Cl  0  0  0  0  0  0  0  0  0  0  0  0
   -7.5468   -5.2800   -1.7829 C   0  0  0  0  0  0  0  0  0  0  0  0
   -8.7431   -5.0389   -1.8562 O   0  0  0  0  0  0  0  0  0  0  0  0
   -6.9755   -6.0529   -2.7767 N   0  0  0  0  0  0  0  0  0  0  0  0
   -5.6436   -6.1804   -2.3984 C   0  0  0  0  0  0  0  0  0  0  0  0
   -4.9280   -6.8124   -3.1667 O   0  0  0  0  0  0  0  0  0  0  0  0
   -3.7234   -4.6460    0.3951 C   0  0  0  0  0  0  0  0  0  0  0  0
   -4.1637   -3.3806    0.8271 C   0  0  0  0  0  0  0  0  0  0  0  0
   -3.4355   -2.6892    1.8184 C   0  0  0  0  0  0  0  0  0  0  0  0
   -2.2242   -3.2112    2.3214 C   0  0  0  0  0  0  0  0  0  0  0  0
   -1.7082   -4.4084    1.7963 C   0  0  0  0  0  0  0  0  0  0  0  0
   -2.4723   -5.0828    0.8355 C   0  0  0  0  0  0  0  0  0  0  0  0
    0.6406   -5.8357   -0.4590 N   0  0  0  0  0  0  0  0  0  0  0  0
    2.0341   -5.5512   -0.8235 C   0  0  0  0  0  0  0  0  0  0  0  0
    2.1394   -4.3898   -1.8235 C   0  0  0  0  0  0  0  0  0  0  0  0
    1.7411   -3.1839   -1.1595 O   0  0  0  0  0  0  0  0  0  0  0  0
    1.7955   -2.0227   -1.9968 C   0  0  0  0  0  0  0  0  0  0  0  0
    1.6893   -0.7708   -1.1113 C   0  0  0  0  0  0  0  0  0  0  0  0
    2.3059    0.2892   -1.8521 O   0  0  0  0  0  0  0  0  0  0  0  0
    2.3221    1.5711   -1.2196 C   0  0  0  0  0  0  0  0  0  0  0  0
    3.2267    2.4568   -2.0917 C   0  0  0  0  0  0  0  0  0  0  0  0
    3.2969    3.8274   -1.5658 N   0  0  0  0  0  0  0  0  0  0  0  0
    4.3520    4.7058   -1.7823 C   0  0  0  0  0  0  0  0  0  0  0  0
    5.3631    4.4734   -2.7467 C   0  0  0  0  0  0  0  0  0  0  0  0
    6.4378    5.3824   -2.9120 C   0  0  0  0  0  0  0  0  0  0  0  0
    6.5248    6.5417   -2.1147 C   0  0  0  0  0  0  0  0  0  0  0  0
    5.5154    6.7641   -1.1716 C   0  0  0  0  0  0  0  0  0  0  0  0
    4.4526    5.8746   -1.0188 C   0  0  0  0  0  0  0  0  0  0  0  0
    3.6349    6.3649   -0.0288 C   0  0  0  0  0  0  0  0  0  0  0  0
    2.5234    5.9691    0.3059 O   0  0  0  0  0  0  0  0  0  0  0  0
    4.1606    7.5748    0.4322 N   0  0  0  0  0  0  0  0  0  0  0  0
    3.7676    8.2174    1.7013 C   0  0  0  0  0  0  0  0  0  0  0  0
    3.3731    9.6922    1.4745 C   0  0  0  0  0  0  0  0  0  0  0  0
    2.9969   10.3437    2.8224 C   0  0  0  0  0  0  0  0  0  0  0  0
    4.0846   10.1627    3.8584 C   0  0  0  0  0  0  0  0  0  0  0  0
    4.2129   10.8962    4.8254 O   0  0  0  0  0  0  0  0  0  0  0  0
    4.8184    8.9707    3.8642 N   0  0  0  0  0  0  0  0  0  0  0  0
    4.8286    8.0721    2.7878 C   0  0  0  0  0  0  0  0  0  0  0  0
    5.5030    7.0646    2.9460 O   0  0  0  0  0  0  0  0  0  0  0  0
    5.3543    7.7903   -0.2695 C   0  0  0  0  0  0  0  0  0  0  0  0
    6.0437    8.7943   -0.1297 O   0  0  0  0  0  0  0  0  0  0  0  0
   -1.6101   -8.1735    0.0650 H   0  0  0  0  0  0  0  0  0  0  0  0
   -1.2533   -7.2931    1.5485 H   0  0  0  0  0  0  0  0  0  0  0  0
   -3.0682   -7.1401   -1.6046 H   0  0  0  0  0  0  0  0  0  0  0  0
   -7.7097   -2.6022   -0.6639 H   0  0  0  0  0  0  0  0  0  0  0  0
   -8.3859   -1.4783    1.4510 H   0  0  0  0  0  0  0  0  0  0  0  0
   -7.0407   -4.8933    3.7067 H   0  0  0  0  0  0  0  0  0  0  0  0
   -7.3187   -6.1281   -3.7221 H   0  0  0  0  0  0  0  0  0  0  0  0
   -5.0108   -2.8916    0.3724 H   0  0  0  0  0  0  0  0  0  0  0  0
   -3.7917   -1.7249    2.1700 H   0  0  0  0  0  0  0  0  0  0  0  0
   -1.6578   -2.6523    3.0619 H   0  0  0  0  0  0  0  0  0  0  0  0
   -0.7307   -4.7738    2.0965 H   0  0  0  0  0  0  0  0  0  0  0  0
   -0.0498   -5.0983   -0.5522 H   0  0  0  0  0  0  0  0  0  0  0  0
    2.4778   -6.4507   -1.2731 H   0  0  0  0  0  0  0  0  0  0  0  0
    2.6029   -5.3124    0.0846 H   0  0  0  0  0  0  0  0  0  0  0  0
    1.5040   -4.5911   -2.6957 H   0  0  0  0  0  0  0  0  0  0  0  0
    3.1807   -4.3074   -2.1644 H   0  0  0  0  0  0  0  0  0  0  0  0
    0.9820   -2.0297   -2.7340 H   0  0  0  0  0  0  0  0  0  0  0  0
    2.7512   -1.9883   -2.5363 H   0  0  0  0  0  0  0  0  0  0  0  0
    2.2247   -0.9405   -0.1677 H   0  0  0  0  0  0  0  0  0  0  0  0
    0.6367   -0.5499   -0.8900 H   0  0  0  0  0  0  0  0  0  0  0  0
    1.3089    1.9909   -1.1662 H   0  0  0  0  0  0  0  0  0  0  0  0
    2.7355    1.5058   -0.2035 H   0  0  0  0  0  0  0  0  0  0  0  0
    4.2287    2.0072   -2.1060 H   0  0  0  0  0  0  0  0  0  0  0  0
    2.8419    2.4689   -3.1201 H   0  0  0  0  0  0  0  0  0  0  0  0
    2.6028    4.1255   -0.8883 H   0  0  0  0  0  0  0  0  0  0  0  0
    5.3261    3.5903   -3.3761 H   0  0  0  0  0  0  0  0  0  0  0  0
    7.2045    5.1836   -3.6567 H   0  0  0  0  0  0  0  0  0  0  0  0
    7.3480    7.2434   -2.2211 H   0  0  0  0  0  0  0  0  0  0  0  0
    2.8820    7.6871    2.0751 H   0  0  0  0  0  0  0  0  0  0  0  0
    2.5388    9.7540    0.7636 H   0  0  0  0  0  0  0  0  0  0  0  0
    4.2164   10.2385    1.0298 H   0  0  0  0  0  0  0  0  0  0  0  0
    2.8107   11.4149    2.6814 H   0  0  0  0  0  0  0  0  0  0  0  0
    2.0644    9.9142    3.2082 H   0  0  0  0  0  0  0  0  0  0  0  0
    5.4559    8.8046    4.6285 H   0  0  0  0  0  0  0  0  0  0  0  0
  1  2  2  0  0  0  0
  2  3  1  0  0  0  0
  2 28  1  0  0  0  0
  3  4  1  0  0  0  0
  3 57  1  0  0  0  0
  3 58  1  0  0  0  0
  4  5  1  0  0  0  0
  4 27  1  0  0  0  0
  5  6  2  0  0  0  0
  5 59  1  0  0  0  0
  6  7  1  0  0  0  0
  6 22  1  0  0  0  0
  7  8  2  0  0  0  0
  7 20  1  0  0  0  0
  8  9  1  0  0  0  0
  8 17  1  0  0  0  0
  9 10  2  0  0  0  0
  9 15  1  0  0  0  0
 10 11  1  0  0  0  0
 10 60  1  0  0  0  0
 11 12  2  0  0  0  0
 11 61  1  0  0  0  0
 12 13  1  0  0  0  0
 12 14  1  0  0  0  0
 14 15  2  0  0  0  0
 14 62  1  0  0  0  0
 15 16  1  0  0  0  0
 17 18  2  0  0  0  0
 17 19  1  0  0  0  0
 19 20  1  0  0  0  0
 19 63  1  0  0  0  0
 20 21  2  0  0  0  0
 22 23  2  0  0  0  0
 22 27  1  0  0  0  0
 23 24  1  0  0  0  0
 23 64  1  0  0  0  0
 24 25  2  0  0  0  0
 24 65  1  0  0  0  0
 25 26  1  0  0  0  0
 25 66  1  0  0  0  0
 26 27  2  0  0  0  0
 26 67  1  0  0  0  0
 28 29  1  0  0  0  0
 28 68  1  0  0  0  0
 29 30  1  0  0  0  0
 29 69  1  0  0  0  0
 29 70  1  0  0  0  0
 30 31  1  0  0  0  0
 30 71  1  0  0  0  0
 30 72  1  0  0  0  0
 31 32  1  0  0  0  0
 32 33  1  0  0  0  0
 32 73  1  0  0  0  0
 32 74  1  0  0  0  0
 33 34  1  0  0  0  0
 33 75  1  0  0  0  0
 33 76  1  0  0  0  0
 34 35  1  0  0  0  0
 35 36  1  0  0  0  0
 35 77  1  0  0  0  0
 35 78  1  0  0  0  0
 36 37  1  0  0  0  0
 36 79  1  0  0  0  0
 36 80  1  0  0  0  0
 37 38  1  0  0  0  0
 37 81  1  0  0  0  0
 38 39  2  0  0  0  0
 38 43  1  0  0  0  0
 39 40  1  0  0  0  0
 39 82  1  0  0  0  0
 40 41  2  0  0  0  0
 40 83  1  0  0  0  0
 41 42  1  0  0  0  0
 41 84  1  0  0  0  0
 42 43  2  0  0  0  0
 42 55  1  0  0  0  0
 43 44  1  0  0  0  0
 44 45  2  0  0  0  0
 44 46  1  0  0  0  0
 46 47  1  0  0  0  0
 46 55  1  0  0  0  0
 47 48  1  0  0  0  0
 47 53  1  0  0  0  0
 47 85  1  0  0  0  0
 48 49  1  0  0  0  0
 48 86  1  0  0  0  0
 48 87  1  0  0  0  0
 49 50  1  0  0  0  0
 49 88  1  0  0  0  0
 49 89  1  0  0  0  0
 50 51  2  0  0  0  0
 50 52  1  0  0  0  0
 52 53  1  0  0  0  0
 52 90  1  0  0  0  0
 53 54  2  0  0  0  0
 55 56  2  0  0  0  0
M  END
$$$$
protac3895RUN2
  chem.cr 07102519423D
protac3895RUN2
 90 96  0  0  0  0  0  0  0  0999 V2000
    1.3183   -6.9484    1.0996 O   0  0  0  0  0  0  0  0  0  0  0  0
    1.0928   -5.7521    1.2163 C   0  0  0  0  0  0  0  0  0  0  0  0
    0.3645   -5.1539    2.4018 C   0  0  0  0  0  0  0  0  0  0  0  0
   -1.0438   -4.7794    2.1250 N   0  0  0  0  0  0  0  0  0  0  0  0
   -1.7194   -5.3697    1.0538 C   0  0  0  0  0  0  0  0  0  0  0  0
   -2.6232   -4.5302    0.5011 C   0  0  0  0  0  0  0  0  0  0  0  0
   -3.4661   -4.8557   -0.5351 C   0  0  0  0  0  0  0  0  0  0  0  0
   -4.5818   -4.2683   -1.0506 C   0  0  0  0  0  0  0  0  0  0  0  0
   -5.3144   -3.1994   -0.5631 C   0  0  0  0  0  0  0  0  0  0  0  0
   -5.5566   -2.0898   -1.4053 C   0  0  0  0  0  0  0  0  0  0  0  0
   -6.3413   -1.0105   -0.9620 C   0  0  0  0  0  0  0  0  0  0  0  0
   -6.9254   -1.0445    0.3123 C   0  0  0  0  0  0  0  0  0  0  0  0
   -7.9007    0.3070    0.8691 Cl  0  0  0  0  0  0  0  0  0  0  0  0
   -6.7361   -2.1612    1.1407 C   0  0  0  0  0  0  0  0  0  0  0  0
   -5.9316   -3.2329    0.7117 C   0  0  0  0  0  0  0  0  0  0  0  0
   -5.7482   -4.6187    1.7880 Cl  0  0  0  0  0  0  0  0  0  0  0  0
   -5.0614   -4.9699   -2.0841 C   0  0  0  0  0  0  0  0  0  0  0  0
   -6.0499   -4.8497   -2.7932 O   0  0  0  0  0  0  0  0  0  0  0  0
   -4.2406   -6.0574   -2.3034 N   0  0  0  0  0  0  0  0  0  0  0  0
   -3.3049   -5.9804   -1.2813 C   0  0  0  0  0  0  0  0  0  0  0  0
   -2.4878   -6.8940   -1.2655 O   0  0  0  0  0  0  0  0  0  0  0  0
   -2.4845   -3.3265    1.2220 C   0  0  0  0  0  0  0  0  0  0  0  0
   -2.9519   -2.0144    0.9989 C   0  0  0  0  0  0  0  0  0  0  0  0
   -2.5760   -0.9767    1.8812 C   0  0  0  0  0  0  0  0  0  0  0  0
   -1.6999   -1.2217    2.9587 C   0  0  0  0  0  0  0  0  0  0  0  0
   -1.1543   -2.5037    3.1346 C   0  0  0  0  0  0  0  0  0  0  0  0
   -1.5335   -3.5078    2.2366 C   0  0  0  0  0  0  0  0  0  0  0  0
    1.2010   -4.9293    0.0889 N   0  0  0  0  0  0  0  0  0  0  0  0
    1.1164   -5.4164   -1.2991 C   0  0  0  0  0  0  0  0  0  0  0  0
    0.1573   -4.5188   -2.1048 C   0  0  0  0  0  0  0  0  0  0  0  0
    0.4780   -3.1650   -1.7632 O   0  0  0  0  0  0  0  0  0  0  0  0
   -0.5861   -2.2198   -1.8981 C   0  0  0  0  0  0  0  0  0  0  0  0
   -0.0757   -0.8958   -1.3139 C   0  0  0  0  0  0  0  0  0  0  0  0
    1.0071   -0.4561   -2.1454 O   0  0  0  0  0  0  0  0  0  0  0  0
    1.6389    0.7615   -1.7430 C   0  0  0  0  0  0  0  0  0  0  0  0
    0.9566    1.9293   -2.4846 C   0  0  0  0  0  0  0  0  0  0  0  0
    1.5116    3.2205   -2.0438 N   0  0  0  0  0  0  0  0  0  0  0  0
    2.8701    3.5131   -2.0300 C   0  0  0  0  0  0  0  0  0  0  0  0
    3.7796    2.9920   -2.9805 C   0  0  0  0  0  0  0  0  0  0  0  0
    5.1620    3.2928   -2.9068 C   0  0  0  0  0  0  0  0  0  0  0  0
    5.6627    4.1129   -1.8744 C   0  0  0  0  0  0  0  0  0  0  0  0
    4.7518    4.6213   -0.9399 C   0  0  0  0  0  0  0  0  0  0  0  0
    3.3883    4.3409   -1.0288 C   0  0  0  0  0  0  0  0  0  0  0  0
    2.7511    4.9900    0.0023 C   0  0  0  0  0  0  0  0  0  0  0  0
    1.5497    5.2024    0.1282 O   0  0  0  0  0  0  0  0  0  0  0  0
    3.7084    5.7118    0.7210 N   0  0  0  0  0  0  0  0  0  0  0  0
    3.4161    6.6760    1.8021 C   0  0  0  0  0  0  0  0  0  0  0  0
    3.5049    8.1193    1.2631 C   0  0  0  0  0  0  0  0  0  0  0  0
    3.2355    9.1228    2.4035 C   0  0  0  0  0  0  0  0  0  0  0  0
    4.1241    8.8692    3.6001 C   0  0  0  0  0  0  0  0  0  0  0  0
    4.4070    9.7291    4.4213 O   0  0  0  0  0  0  0  0  0  0  0  0
    4.4772    7.5510    3.9153 N   0  0  0  0  0  0  0  0  0  0  0  0
    4.2844    6.4729    3.0389 C   0  0  0  0  0  0  0  0  0  0  0  0
    4.5678    5.3712    3.4896 O   0  0  0  0  0  0  0  0  0  0  0  0
    4.9587    5.4428    0.1446 C   0  0  0  0  0  0  0  0  0  0  0  0
    5.9544    6.1153    0.3925 O   0  0  0  0  0  0  0  0  0  0  0  0
    0.3747   -5.8817    3.2209 H   0  0  0  0  0  0  0  0  0  0  0  0
    0.9175   -4.2701    2.7361 H   0  0  0  0  0  0  0  0  0  0  0  0
   -1.4917   -6.4083    0.8252 H   0  0  0  0  0  0  0  0  0  0  0  0
   -5.1342   -2.0684   -2.4072 H   0  0  0  0  0  0  0  0  0  0  0  0
   -6.5087   -0.1532   -1.6100 H   0  0  0  0  0  0  0  0  0  0  0  0
   -7.2208   -2.2023    2.1126 H   0  0  0  0  0  0  0  0  0  0  0  0
   -4.5552   -6.9309   -2.6962 H   0  0  0  0  0  0  0  0  0  0  0  0
   -3.5560   -1.7577    0.1492 H   0  0  0  0  0  0  0  0  0  0  0  0
   -2.9600    0.0288    1.7239 H   0  0  0  0  0  0  0  0  0  0  0  0
   -1.4210   -0.4132    3.6326 H   0  0  0  0  0  0  0  0  0  0  0  0
   -0.4557   -2.7057    3.9395 H   0  0  0  0  0  0  0  0  0  0  0  0
    0.9714   -3.9491    0.2137 H   0  0  0  0  0  0  0  0  0  0  0  0
    0.7611   -6.4568   -1.3233 H   0  0  0  0  0  0  0  0  0  0  0  0
    2.1177   -5.3841   -1.7471 H   0  0  0  0  0  0  0  0  0  0  0  0
   -0.8728   -4.7566   -1.8171 H   0  0  0  0  0  0  0  0  0  0  0  0
    0.2667   -4.6966   -3.1824 H   0  0  0  0  0  0  0  0  0  0  0  0
   -1.4651   -2.5486   -1.3313 H   0  0  0  0  0  0  0  0  0  0  0  0
   -0.8738   -2.0903   -2.9482 H   0  0  0  0  0  0  0  0  0  0  0  0
    0.2676   -1.0680   -0.2841 H   0  0  0  0  0  0  0  0  0  0  0  0
   -0.8881   -0.1597   -1.2921 H   0  0  0  0  0  0  0  0  0  0  0  0
    1.5728    0.9022   -0.6549 H   0  0  0  0  0  0  0  0  0  0  0  0
    2.7010    0.7245   -2.0132 H   0  0  0  0  0  0  0  0  0  0  0  0
    1.0907    1.8014   -3.5658 H   0  0  0  0  0  0  0  0  0  0  0  0
   -0.1203    1.9029   -2.2808 H   0  0  0  0  0  0  0  0  0  0  0  0
    0.9527    3.7693   -1.3973 H   0  0  0  0  0  0  0  0  0  0  0  0
    3.4200    2.3510   -3.7797 H   0  0  0  0  0  0  0  0  0  0  0  0
    5.8425    2.8881   -3.6509 H   0  0  0  0  0  0  0  0  0  0  0  0
    6.7229    4.3438   -1.7987 H   0  0  0  0  0  0  0  0  0  0  0  0
    2.3833    6.4980    2.1300 H   0  0  0  0  0  0  0  0  0  0  0  0
    2.7932    8.2598    0.4381 H   0  0  0  0  0  0  0  0  0  0  0  0
    4.5101    8.2960    0.8558 H   0  0  0  0  0  0  0  0  0  0  0  0
    3.3989   10.1466    2.0440 H   0  0  0  0  0  0  0  0  0  0  0  0
    2.1866    9.0643    2.7195 H   0  0  0  0  0  0  0  0  0  0  0  0
    4.9670    7.3768    4.7796 H   0  0  0  0  0  0  0  0  0  0  0  0
  1  2  2  0  0  0  0
  2  3  1  0  0  0  0
  2 28  1  0  0  0  0
  3  4  1  0  0  0  0
  3 57  1  0  0  0  0
  3 58  1  0  0  0  0
  4  5  1  0  0  0  0
  4 27  1  0  0  0  0
  5  6  2  0  0  0  0
  5 59  1  0  0  0  0
  6  7  1  0  0  0  0
  6 22  1  0  0  0  0
  7  8  2  0  0  0  0
  7 20  1  0  0  0  0
  8  9  1  0  0  0  0
  8 17  1  0  0  0  0
  9 10  2  0  0  0  0
  9 15  1  0  0  0  0
 10 11  1  0  0  0  0
 10 60  1  0  0  0  0
 11 12  2  0  0  0  0
 11 61  1  0  0  0  0
 12 13  1  0  0  0  0
 12 14  1  0  0  0  0
 14 15  2  0  0  0  0
 14 62  1  0  0  0  0
 15 16  1  0  0  0  0
 17 18  2  0  0  0  0
 17 19  1  0  0  0  0
 19 20  1  0  0  0  0
 19 63  1  0  0  0  0
 20 21  2  0  0  0  0
 22 23  2  0  0  0  0
 22 27  1  0  0  0  0
 23 24  1  0  0  0  0
 23 64  1  0  0  0  0
 24 25  2  0  0  0  0
 24 65  1  0  0  0  0
 25 26  1  0  0  0  0
 25 66  1  0  0  0  0
 26 27  2  0  0  0  0
 26 67  1  0  0  0  0
 28 29  1  0  0  0  0
 28 68  1  0  0  0  0
 29 30  1  0  0  0  0
 29 69  1  0  0  0  0
 29 70  1  0  0  0  0
 30 31  1  0  0  0  0
 30 71  1  0  0  0  0
 30 72  1  0  0  0  0
 31 32  1  0  0  0  0
 32 33  1  0  0  0  0
 32 73  1  0  0  0  0
 32 74  1  0  0  0  0
 33 34  1  0  0  0  0
 33 75  1  0  0  0  0
 33 76  1  0  0  0  0
 34 35  1  0  0  0  0
 35 36  1  0  0  0  0
 35 77  1  0  0  0  0
 35 78  1  0  0  0  0
 36 37  1  0  0  0  0
 36 79  1  0  0  0  0
 36 80  1  0  0  0  0
 37 38  1  0  0  0  0
 37 81  1  0  0  0  0
 38 39  2  0  0  0  0
 38 43  1  0  0  0  0
 39 40  1  0  0  0  0
 39 82  1  0  0  0  0
 40 41  2  0  0  0  0
 40 83  1  0  0  0  0
 41 42  1  0  0  0  0
 41 84  1  0  0  0  0
 42 43  2  0  0  0  0
 42 55  1  0  0  0  0
 43 44  1  0  0  0  0
 44 45  2  0  0  0  0
 44 46  1  0  0  0  0
 46 47  1  0  0  0  0
 46 55  1  0  0  0  0
 47 48  1  0  0  0  0
 47 53  1  0  0  0  0
 47 85  1  0  0  0  0
 48 49  1  0  0  0  0
 48 86  1  0  0  0  0
 48 87  1  0  0  0  0
 49 50  1  0  0  0  0
 49 88  1  0  0  0  0
 49 89  1  0  0  0  0
 50 51  2  0  0  0  0
 50 52  1  0  0  0  0
 52 53  1  0  0  0  0
 52 90  1  0  0  0  0
 53 54  2  0  0  0  0
 55 56  2  0  0  0  0
M  END
$$$$
protac3895RUN2
  chem.cr 07102519423D
protac3895RUN2
 90 96  0  0  0  0  0  0  0  0999 V2000
   -1.4226   -4.2742    1.4326 O   0  0  0  0  0  0  0  0  0  0  0  0
   -0.9717   -3.1439    1.5597 C   0  0  0  0  0  0  0  0  0  0  0  0
    0.1376   -2.8075    2.5314 C   0  0  0  0  0  0  0  0  0  0  0  0
    0.7552   -1.4792    2.3355 N   0  0  0  0  0  0  0  0  0  0  0  0
    0.4788   -0.3767    3.1391 C   0  0  0  0  0  0  0  0  0  0  0  0
    1.3755    0.6240    2.9390 C   0  0  0  0  0  0  0  0  0  0  0  0
    1.2485    1.8968    3.4691 C   0  0  0  0  0  0  0  0  0  0  0  0
    1.9401    3.0679    3.3278 C   0  0  0  0  0  0  0  0  0  0  0  0
    3.0735    3.3477    2.5992 C   0  0  0  0  0  0  0  0  0  0  0  0
    2.9757    3.7004    1.2381 C   0  0  0  0  0  0  0  0  0  0  0  0
    4.1274    4.0410    0.5075 C   0  0  0  0  0  0  0  0  0  0  0  0
    5.3824    4.0460    1.1394 C   0  0  0  0  0  0  0  0  0  0  0  0
    6.8249    4.4496    0.2204 Cl  0  0  0  0  0  0  0  0  0  0  0  0
    5.4883    3.7372    2.5045 C   0  0  0  0  0  0  0  0  0  0  0  0
    4.3378    3.4037    3.2392 C   0  0  0  0  0  0  0  0  0  0  0  0
    4.4988    3.0180    4.9516 Cl  0  0  0  0  0  0  0  0  0  0  0  0
    1.3934    4.0581    4.0394 C   0  0  0  0  0  0  0  0  0  0  0  0
    1.6830    5.2357    4.2062 O   0  0  0  0  0  0  0  0  0  0  0  0
    0.2791    3.5737    4.6800 N   0  0  0  0  0  0  0  0  0  0  0  0
    0.2502    2.2304    4.3317 C   0  0  0  0  0  0  0  0  0  0  0  0
   -0.6608    1.5982    4.8603 O   0  0  0  0  0  0  0  0  0  0  0  0
    2.3115    0.0720    2.0243 C   0  0  0  0  0  0  0  0  0  0  0  0
    3.5734    0.4810    1.5385 C   0  0  0  0  0  0  0  0  0  0  0  0
    4.2688   -0.3101    0.5984 C   0  0  0  0  0  0  0  0  0  0  0  0
    3.7545   -1.5485    0.1702 C   0  0  0  0  0  0  0  0  0  0  0  0
    2.5536   -2.0256    0.7161 C   0  0  0  0  0  0  0  0  0  0  0  0
    1.8862   -1.2086    1.6365 C   0  0  0  0  0  0  0  0  0  0  0  0
   -1.6766   -2.0670    1.0009 N   0  0  0  0  0  0  0  0  0  0  0  0
   -3.1449   -2.0166    0.9472 C   0  0  0  0  0  0  0  0  0  0  0  0
   -3.7057   -1.0924    2.0483 C   0  0  0  0  0  0  0  0  0  0  0  0
   -3.3867    0.2640    1.7041 O   0  0  0  0  0  0  0  0  0  0  0  0
   -3.5197    1.2147    2.7694 C   0  0  0  0  0  0  0  0  0  0  0  0
   -3.3254    2.6508    2.2213 C   0  0  0  0  0  0  0  0  0  0  0  0
   -1.9237    2.9811    2.0836 O   0  0  0  0  0  0  0  0  0  0  0  0
   -1.3544    2.9406    0.7610 C   0  0  0  0  0  0  0  0  0  0  0  0
   -0.7449    1.5467    0.5089 C   0  0  0  0  0  0  0  0  0  0  0  0
   -0.8226    1.1175   -0.8973 N   0  0  0  0  0  0  0  0  0  0  0  0
   -1.9168    0.4594   -1.4572 C   0  0  0  0  0  0  0  0  0  0  0  0
   -3.2592    0.8685   -1.2625 C   0  0  0  0  0  0  0  0  0  0  0  0
   -4.3396    0.1862   -1.8742 C   0  0  0  0  0  0  0  0  0  0  0  0
   -4.1039   -0.9215   -2.7094 C   0  0  0  0  0  0  0  0  0  0  0  0
   -2.7755   -1.3231   -2.8990 C   0  0  0  0  0  0  0  0  0  0  0  0
   -1.7140   -0.6509   -2.2901 C   0  0  0  0  0  0  0  0  0  0  0  0
   -0.5465   -1.2535   -2.6882 C   0  0  0  0  0  0  0  0  0  0  0  0
    0.5879   -0.7887   -2.6261 O   0  0  0  0  0  0  0  0  0  0  0  0
   -0.8654   -2.2781   -3.5877 N   0  0  0  0  0  0  0  0  0  0  0  0
    0.0905   -2.8901   -4.5321 C   0  0  0  0  0  0  0  0  0  0  0  0
    0.1158   -2.0679   -5.8403 C   0  0  0  0  0  0  0  0  0  0  0  0
    1.0425   -2.7407   -6.8729 C   0  0  0  0  0  0  0  0  0  0  0  0
    0.6535   -4.1839   -7.1055 C   0  0  0  0  0  0  0  0  0  0  0  0
    0.8839   -4.7841   -8.1429 O   0  0  0  0  0  0  0  0  0  0  0  0
    0.1966   -4.9385   -6.0158 N   0  0  0  0  0  0  0  0  0  0  0  0
   -0.1786   -4.3724   -4.7861 C   0  0  0  0  0  0  0  0  0  0  0  0
   -0.4518   -5.1707   -3.9017 O   0  0  0  0  0  0  0  0  0  0  0  0
   -2.2664   -2.3320   -3.6828 C   0  0  0  0  0  0  0  0  0  0  0  0
   -2.8316   -2.8944   -4.6148 O   0  0  0  0  0  0  0  0  0  0  0  0
   -0.2608   -2.8707    3.5500 H   0  0  0  0  0  0  0  0  0  0  0  0
    0.9164   -3.5751    2.4562 H   0  0  0  0  0  0  0  0  0  0  0  0
   -0.4302   -0.4070    3.7325 H   0  0  0  0  0  0  0  0  0  0  0  0
    2.0017    3.7129    0.7592 H   0  0  0  0  0  0  0  0  0  0  0  0
    4.0482    4.3017   -0.5446 H   0  0  0  0  0  0  0  0  0  0  0  0
    6.4576    3.7564    2.9914 H   0  0  0  0  0  0  0  0  0  0  0  0
   -0.0900    3.9444    5.5413 H   0  0  0  0  0  0  0  0  0  0  0  0
    4.0759    1.3580    1.8797 H   0  0  0  0  0  0  0  0  0  0  0  0
    5.2285    0.0300    0.2172 H   0  0  0  0  0  0  0  0  0  0  0  0
    4.3032   -2.1499   -0.5505 H   0  0  0  0  0  0  0  0  0  0  0  0
    2.1670   -3.0008    0.4385 H   0  0  0  0  0  0  0  0  0  0  0  0
   -1.1686   -1.2044    0.8513 H   0  0  0  0  0  0  0  0  0  0  0  0
   -3.5534   -3.0306    1.0740 H   0  0  0  0  0  0  0  0  0  0  0  0
   -3.4594   -1.6553   -0.0392 H   0  0  0  0  0  0  0  0  0  0  0  0
   -3.2604   -1.3702    3.0114 H   0  0  0  0  0  0  0  0  0  0  0  0
   -4.7942   -1.2204    2.1222 H   0  0  0  0  0  0  0  0  0  0  0  0
   -2.7906    1.0240    3.5686 H   0  0  0  0  0  0  0  0  0  0  0  0
   -4.5273    1.1447    3.2051 H   0  0  0  0  0  0  0  0  0  0  0  0
   -3.7789    3.3361    2.9482 H   0  0  0  0  0  0  0  0  0  0  0  0
   -3.8743    2.7790    1.2804 H   0  0  0  0  0  0  0  0  0  0  0  0
   -2.0998    3.2062    0.0006 H   0  0  0  0  0  0  0  0  0  0  0  0
   -0.5471    3.6825    0.6866 H   0  0  0  0  0  0  0  0  0  0  0  0
    0.3128    1.5936    0.7914 H   0  0  0  0  0  0  0  0  0  0  0  0
   -1.2026    0.7999    1.1588 H   0  0  0  0  0  0  0  0  0  0  0  0
    0.0631    0.8640   -1.3245 H   0  0  0  0  0  0  0  0  0  0  0  0
   -3.4825    1.7254   -0.6432 H   0  0  0  0  0  0  0  0  0  0  0  0
   -5.3601    0.5231   -1.7036 H   0  0  0  0  0  0  0  0  0  0  0  0
   -4.9180   -1.4476   -3.1993 H   0  0  0  0  0  0  0  0  0  0  0  0
    1.0863   -2.8383   -4.0711 H   0  0  0  0  0  0  0  0  0  0  0  0
    0.4427   -1.0402   -5.6286 H   0  0  0  0  0  0  0  0  0  0  0  0
   -0.9021   -2.0062   -6.2506 H   0  0  0  0  0  0  0  0  0  0  0  0
    1.0005   -2.1976   -7.8255 H   0  0  0  0  0  0  0  0  0  0  0  0
    2.0842   -2.7046   -6.5308 H   0  0  0  0  0  0  0  0  0  0  0  0
    0.0561   -5.9282   -6.1463 H   0  0  0  0  0  0  0  0  0  0  0  0
  1  2  2  0  0  0  0
  2  3  1  0  0  0  0
  2 28  1  0  0  0  0
  3  4  1  0  0  0  0
  3 57  1  0  0  0  0
  3 58  1  0  0  0  0
  4  5  1  0  0  0  0
  4 27  1  0  0  0  0
  5  6  2  0  0  0  0
  5 59  1  0  0  0  0
  6  7  1  0  0  0  0
  6 22  1  0  0  0  0
  7  8  2  0  0  0  0
  7 20  1  0  0  0  0
  8  9  1  0  0  0  0
  8 17  1  0  0  0  0
  9 10  2  0  0  0  0
  9 15  1  0  0  0  0
 10 11  1  0  0  0  0
 10 60  1  0  0  0  0
 11 12  2  0  0  0  0
 11 61  1  0  0  0  0
 12 13  1  0  0  0  0
 12 14  1  0  0  0  0
 14 15  2  0  0  0  0
 14 62  1  0  0  0  0
 15 16  1  0  0  0  0
 17 18  2  0  0  0  0
 17 19  1  0  0  0  0
 19 20  1  0  0  0  0
 19 63  1  0  0  0  0
 20 21  2  0  0  0  0
 22 23  2  0  0  0  0
 22 27  1  0  0  0  0
 23 24  1  0  0  0  0
 23 64  1  0  0  0  0
 24 25  2  0  0  0  0
 24 65  1  0  0  0  0
 25 26  1  0  0  0  0
 25 66  1  0  0  0  0
 26 27  2  0  0  0  0
 26 67  1  0  0  0  0
 28 29  1  0  0  0  0
 28 68  1  0  0  0  0
 29 30  1  0  0  0  0
 29 69  1  0  0  0  0
 29 70  1  0  0  0  0
 30 31  1  0  0  0  0
 30 71  1  0  0  0  0
 30 72  1  0  0  0  0
 31 32  1  0  0  0  0
 32 33  1  0  0  0  0
 32 73  1  0  0  0  0
 32 74  1  0  0  0  0
 33 34  1  0  0  0  0
 33 75  1  0  0  0  0
 33 76  1  0  0  0  0
 34 35  1  0  0  0  0
 35 36  1  0  0  0  0
 35 77  1  0  0  0  0
 35 78  1  0  0  0  0
 36 37  1  0  0  0  0
 36 79  1  0  0  0  0
 36 80  1  0  0  0  0
 37 38  1  0  0  0  0
 37 81  1  0  0  0  0
 38 39  2  0  0  0  0
 38 43  1  0  0  0  0
 39 40  1  0  0  0  0
 39 82  1  0  0  0  0
 40 41  2  0  0  0  0
 40 83  1  0  0  0  0
 41 42  1  0  0  0  0
 41 84  1  0  0  0  0
 42 43  2  0  0  0  0
 42 55  1  0  0  0  0
 43 44  1  0  0  0  0
 44 45  2  0  0  0  0
 44 46  1  0  0  0  0
 46 47  1  0  0  0  0
 46 55  1  0  0  0  0
 47 48  1  0  0  0  0
 47 53  1  0  0  0  0
 47 85  1  0  0  0  0
 48 49  1  0  0  0  0
 48 86  1  0  0  0  0
 48 87  1  0  0  0  0
 49 50  1  0  0  0  0
 49 88  1  0  0  0  0
 49 89  1  0  0  0  0
 50 51  2  0  0  0  0
 50 52  1  0  0  0  0
 52 53  1  0  0  0  0
 52 90  1  0  0  0  0
 53 54  2  0  0  0  0
 55 56  2  0  0  0  0
M  END
$$$$
protac3895RUN2
  chem.cr 07102519423D
protac3895RUN2
 90 96  0  0  0  0  0  0  0  0999 V2000
    3.4851   -1.0374    3.5990 O   0  0  0  0  0  0  0  0  0  0  0  0
    2.3907   -0.5163    3.4386 C   0  0  0  0  0  0  0  0  0  0  0  0
    1.8651    0.5969    4.3109 C   0  0  0  0  0  0  0  0  0  0  0  0
    1.1575    1.6458    3.5544 N   0  0  0  0  0  0  0  0  0  0  0  0
   -0.2398    1.7021    3.4917 C   0  0  0  0  0  0  0  0  0  0  0  0
   -0.6514    2.2251    2.3121 C   0  0  0  0  0  0  0  0  0  0  0  0
   -1.9451    2.2522    1.8632 C   0  0  0  0  0  0  0  0  0  0  0  0
   -2.4834    2.4573    0.6290 C   0  0  0  0  0  0  0  0  0  0  0  0
   -1.8199    2.6024   -0.5728 C   0  0  0  0  0  0  0  0  0  0  0  0
   -0.9658    1.5761   -1.0166 C   0  0  0  0  0  0  0  0  0  0  0  0
   -0.2822    1.7007   -2.2375 C   0  0  0  0  0  0  0  0  0  0  0  0
   -0.4719    2.8285   -3.0433 C   0  0  0  0  0  0  0  0  0  0  0  0
    0.3738    2.9523   -4.5787 Cl  0  0  0  0  0  0  0  0  0  0  0  0
   -1.3376    3.8480   -2.6243 C   0  0  0  0  0  0  0  0  0  0  0  0
   -2.0101    3.7406   -1.3963 C   0  0  0  0  0  0  0  0  0  0  0  0
   -3.0162    5.0920   -0.8727 Cl  0  0  0  0  0  0  0  0  0  0  0  0
   -3.8180    2.3481    0.6574 C   0  0  0  0  0  0  0  0  0  0  0  0
   -4.6885    2.4041   -0.2012 O   0  0  0  0  0  0  0  0  0  0  0  0
   -4.2055    2.0563    1.9484 N   0  0  0  0  0  0  0  0  0  0  0  0
   -3.0170    2.0108    2.6652 C   0  0  0  0  0  0  0  0  0  0  0  0
   -3.1309    1.7878    3.8637 O   0  0  0  0  0  0  0  0  0  0  0  0
    0.5338    2.6273    1.6615 C   0  0  0  0  0  0  0  0  0  0  0  0
    0.7725    3.5347    0.6099 C   0  0  0  0  0  0  0  0  0  0  0  0
    2.0991    3.8112    0.2146 C   0  0  0  0  0  0  0  0  0  0  0  0
    3.1955    3.2709    0.9232 C   0  0  0  0  0  0  0  0  0  0  0  0
    2.9638    2.4864    2.0660 C   0  0  0  0  0  0  0  0  0  0  0  0
    1.6368    2.2078    2.4076 C   0  0  0  0  0  0  0  0  0  0  0  0
    1.4325   -1.2028    2.6847 N   0  0  0  0  0  0  0  0  0  0  0  0
    1.2941   -2.6606    2.7829 C   0  0  0  0  0  0  0  0  0  0  0  0
   -0.1434   -3.1613    2.5037 C   0  0  0  0  0  0  0  0  0  0  0  0
   -1.0919   -2.3180    3.1923 O   0  0  0  0  0  0  0  0  0  0  0  0
   -1.8355   -1.3832    2.3827 C   0  0  0  0  0  0  0  0  0  0  0  0
   -2.9566   -2.1324    1.6354 C   0  0  0  0  0  0  0  0  0  0  0  0
   -3.4141   -1.2821    0.5746 O   0  0  0  0  0  0  0  0  0  0  0  0
   -4.4402   -1.8427   -0.2683 C   0  0  0  0  0  0  0  0  0  0  0  0
   -4.0431   -1.5736   -1.7342 C   0  0  0  0  0  0  0  0  0  0  0  0
   -2.7019   -2.1243   -1.9764 N   0  0  0  0  0  0  0  0  0  0  0  0
   -1.9142   -1.8479   -3.0864 C   0  0  0  0  0  0  0  0  0  0  0  0
   -2.4400   -1.6396   -4.3803 C   0  0  0  0  0  0  0  0  0  0  0  0
   -1.5826   -1.3655   -5.4761 C   0  0  0  0  0  0  0  0  0  0  0  0
   -0.1827   -1.2839   -5.2933 C   0  0  0  0  0  0  0  0  0  0  0  0
    0.3239   -1.4856   -4.0032 C   0  0  0  0  0  0  0  0  0  0  0  0
   -0.5245   -1.7652   -2.9352 C   0  0  0  0  0  0  0  0  0  0  0  0
    0.2383   -1.8394   -1.7973 C   0  0  0  0  0  0  0  0  0  0  0  0
   -0.1388   -1.9065   -0.6332 O   0  0  0  0  0  0  0  0  0  0  0  0
    1.5544   -1.5250   -2.1241 N   0  0  0  0  0  0  0  0  0  0  0  0
    2.6652   -1.4645   -1.1470 C   0  0  0  0  0  0  0  0  0  0  0  0
    3.3810   -0.0961   -1.1413 C   0  0  0  0  0  0  0  0  0  0  0  0
    4.5068   -0.1141   -0.0811 C   0  0  0  0  0  0  0  0  0  0  0  0
    5.4365   -1.2921   -0.2723 C   0  0  0  0  0  0  0  0  0  0  0  0
    6.5909   -1.3083    0.1274 O   0  0  0  0  0  0  0  0  0  0  0  0
    4.9045   -2.5106   -0.7130 N   0  0  0  0  0  0  0  0  0  0  0  0
    3.6418   -2.6197   -1.3152 C   0  0  0  0  0  0  0  0  0  0  0  0
    3.3009   -3.7534   -1.6262 O   0  0  0  0  0  0  0  0  0  0  0  0
    1.6150   -1.3891   -3.5223 C   0  0  0  0  0  0  0  0  0  0  0  0
    2.5945   -0.9364   -4.1006 O   0  0  0  0  0  0  0  0  0  0  0  0
    1.1934    0.1647    5.0623 H   0  0  0  0  0  0  0  0  0  0  0  0
    2.7052    1.0633    4.8382 H   0  0  0  0  0  0  0  0  0  0  0  0
   -0.8175    1.2348    4.2828 H   0  0  0  0  0  0  0  0  0  0  0  0
   -0.8180    0.6931   -0.4007 H   0  0  0  0  0  0  0  0  0  0  0  0
    0.4023    0.9269   -2.5627 H   0  0  0  0  0  0  0  0  0  0  0  0
   -1.4806    4.7230   -3.2496 H   0  0  0  0  0  0  0  0  0  0  0  0
   -5.1097    2.2640    2.3447 H   0  0  0  0  0  0  0  0  0  0  0  0
   -0.0290    4.0778    0.1370 H   0  0  0  0  0  0  0  0  0  0  0  0
    2.2741    4.4831   -0.6198 H   0  0  0  0  0  0  0  0  0  0  0  0
    4.2132    3.5192    0.6333 H   0  0  0  0  0  0  0  0  0  0  0  0
    3.7887    2.1390    2.6852 H   0  0  0  0  0  0  0  0  0  0  0  0
    0.6334   -0.6768    2.3540 H   0  0  0  0  0  0  0  0  0  0  0  0
    1.5823   -2.9738    3.7957 H   0  0  0  0  0  0  0  0  0  0  0  0
    1.9966   -3.1275    2.0783 H   0  0  0  0  0  0  0  0  0  0  0  0
   -0.2301   -4.1950    2.8582 H   0  0  0  0  0  0  0  0  0  0  0  0
   -0.3247   -3.1719    1.4240 H   0  0  0  0  0  0  0  0  0  0  0  0
   -1.1888   -0.8720    1.6572 H   0  0  0  0  0  0  0  0  0  0  0  0
   -2.3009   -0.6253    3.0208 H   0  0  0  0  0  0  0  0  0  0  0  0
   -3.7698   -2.3511    2.3340 H   0  0  0  0  0  0  0  0  0  0  0  0
   -2.5740   -3.0784    1.2343 H   0  0  0  0  0  0  0  0  0  0  0  0
   -4.5389   -2.9278   -0.1194 H   0  0  0  0  0  0  0  0  0  0  0  0
   -5.4091   -1.3797   -0.0463 H   0  0  0  0  0  0  0  0  0  0  0  0
   -4.7722   -2.0371   -2.4102 H   0  0  0  0  0  0  0  0  0  0  0  0
   -4.0442   -0.4873   -1.9065 H   0  0  0  0  0  0  0  0  0  0  0  0
   -2.1695   -2.3494   -1.1422 H   0  0  0  0  0  0  0  0  0  0  0  0
   -3.5118   -1.6964   -4.5438 H   0  0  0  0  0  0  0  0  0  0  0  0
   -2.0056   -1.2105   -6.4648 H   0  0  0  0  0  0  0  0  0  0  0  0
    0.4823   -1.0540   -6.1218 H   0  0  0  0  0  0  0  0  0  0  0  0
    2.2273   -1.5952   -0.1483 H   0  0  0  0  0  0  0  0  0  0  0  0
    2.6676    0.7163   -0.9344 H   0  0  0  0  0  0  0  0  0  0  0  0
    3.8218    0.0992   -2.1284 H   0  0  0  0  0  0  0  0  0  0  0  0
    5.0818    0.8177   -0.1258 H   0  0  0  0  0  0  0  0  0  0  0  0
    4.0761   -0.1657    0.9255 H   0  0  0  0  0  0  0  0  0  0  0  0
    5.4881   -3.3345   -0.6734 H   0  0  0  0  0  0  0  0  0  0  0  0
  1  2  2  0  0  0  0
  2  3  1  0  0  0  0
  2 28  1  0  0  0  0
  3  4  1  0  0  0  0
  3 57  1  0  0  0  0
  3 58  1  0  0  0  0
  4  5  1  0  0  0  0
  4 27  1  0  0  0  0
  5  6  2  0  0  0  0
  5 59  1  0  0  0  0
  6  7  1  0  0  0  0
  6 22  1  0  0  0  0
  7  8  2  0  0  0  0
  7 20  1  0  0  0  0
  8  9  1  0  0  0  0
  8 17  1  0  0  0  0
  9 10  2  0  0  0  0
  9 15  1  0  0  0  0
 10 11  1  0  0  0  0
 10 60  1  0  0  0  0
 11 12  2  0  0  0  0
 11 61  1  0  0  0  0
 12 13  1  0  0  0  0
 12 14  1  0  0  0  0
 14 15  2  0  0  0  0
 14 62  1  0  0  0  0
 15 16  1  0  0  0  0
 17 18  2  0  0  0  0
 17 19  1  0  0  0  0
 19 20  1  0  0  0  0
 19 63  1  0  0  0  0
 20 21  2  0  0  0  0
 22 23  2  0  0  0  0
 22 27  1  0  0  0  0
 23 24  1  0  0  0  0
 23 64  1  0  0  0  0
 24 25  2  0  0  0  0
 24 65  1  0  0  0  0
 25 26  1  0  0  0  0
 25 66  1  0  0  0  0
 26 27  2  0  0  0  0
 26 67  1  0  0  0  0
 28 29  1  0  0  0  0
 28 68  1  0  0  0  0
 29 30  1  0  0  0  0
 29 69  1  0  0  0  0
 29 70  1  0  0  0  0
 30 31  1  0  0  0  0
 30 71  1  0  0  0  0
 30 72  1  0  0  0  0
 31 32  1  0  0  0  0
 32 33  1  0  0  0  0
 32 73  1  0  0  0  0
 32 74  1  0  0  0  0
 33 34  1  0  0  0  0
 33 75  1  0  0  0  0
 33 76  1  0  0  0  0
 34 35  1  0  0  0  0
 35 36  1  0  0  0  0
 35 77  1  0  0  0  0
 35 78  1  0  0  0  0
 36 37  1  0  0  0  0
 36 79  1  0  0  0  0
 36 80  1  0  0  0  0
 37 38  1  0  0  0  0
 37 81  1  0  0  0  0
 38 39  2  0  0  0  0
 38 43  1  0  0  0  0
 39 40  1  0  0  0  0
 39 82  1  0  0  0  0
 40 41  2  0  0  0  0
 40 83  1  0  0  0  0
 41 42  1  0  0  0  0
 41 84  1  0  0  0  0
 42 43  2  0  0  0  0
 42 55  1  0  0  0  0
 43 44  1  0  0  0  0
 44 45  2  0  0  0  0
 44 46  1  0  0  0  0
 46 47  1  0  0  0  0
 46 55  1  0  0  0  0
 47 48  1  0  0  0  0
 47 53  1  0  0  0  0
 47 85  1  0  0  0  0
 48 49  1  0  0  0  0
 48 86  1  0  0  0  0
 48 87  1  0  0  0  0
 49 50  1  0  0  0  0
 49 88  1  0  0  0  0
 49 89  1  0  0  0  0
 50 51  2  0  0  0  0
 50 52  1  0  0  0  0
 52 53  1  0  0  0  0
 52 90  1  0  0  0  0
 53 54  2  0  0  0  0
 55 56  2  0  0  0  0
M  END
$$$$
protac3895RUN2
  chem.cr 07102519423D
protac3895RUN2
 90 96  0  0  0  0  0  0  0  0999 V2000
   -1.7574   -0.4577    6.4916 O   0  0  0  0  0  0  0  0  0  0  0  0
   -2.6659    0.0049    5.8139 C   0  0  0  0  0  0  0  0  0  0  0  0
   -3.6336    1.0467    6.3287 C   0  0  0  0  0  0  0  0  0  0  0  0
   -3.8902    2.1522    5.3852 N   0  0  0  0  0  0  0  0  0  0  0  0
   -4.9443    2.1436    4.4655 C   0  0  0  0  0  0  0  0  0  0  0  0
   -4.6673    2.9501    3.4145 C   0  0  0  0  0  0  0  0  0  0  0  0
   -5.4004    3.0229    2.2540 C   0  0  0  0  0  0  0  0  0  0  0  0
   -5.1319    3.5441    1.0276 C   0  0  0  0  0  0  0  0  0  0  0  0
   -3.9483    4.0920    0.5676 C   0  0  0  0  0  0  0  0  0  0  0  0
   -2.7829    3.3004    0.5451 C   0  0  0  0  0  0  0  0  0  0  0  0
   -1.5793    3.8182    0.0340 C   0  0  0  0  0  0  0  0  0  0  0  0
   -1.5362    5.1302   -0.4646 C   0  0  0  0  0  0  0  0  0  0  0  0
   -0.0342    5.7790   -1.1092 Cl  0  0  0  0  0  0  0  0  0  0  0  0
   -2.6911    5.9264   -0.4531 C   0  0  0  0  0  0  0  0  0  0  0  0
   -3.8962    5.4123    0.0533 C   0  0  0  0  0  0  0  0  0  0  0  0
   -5.3073    6.4741    0.0948 Cl  0  0  0  0  0  0  0  0  0  0  0  0
   -6.1509    3.3421    0.1803 C   0  0  0  0  0  0  0  0  0  0  0  0
   -6.3210    3.5829   -1.0083 O   0  0  0  0  0  0  0  0  0  0  0  0
   -7.1432    2.6535    0.8472 N   0  0  0  0  0  0  0  0  0  0  0  0
   -6.6404    2.4819    2.1319 C   0  0  0  0  0  0  0  0  0  0  0  0
   -7.3856    1.9038    2.9128 O   0  0  0  0  0  0  0  0  0  0  0  0
   -3.4583    3.5879    3.7495 C   0  0  0  0  0  0  0  0  0  0  0  0
   -2.8490    4.7652    3.2731 C   0  0  0  0  0  0  0  0  0  0  0  0
   -1.6508    5.2217    3.8604 C   0  0  0  0  0  0  0  0  0  0  0  0
   -1.1027    4.5640    4.9816 C   0  0  0  0  0  0  0  0  0  0  0  0
   -1.7803    3.4740    5.5561 C   0  0  0  0  0  0  0  0  0  0  0  0
   -2.9527    3.0334    4.9297 C   0  0  0  0  0  0  0  0  0  0  0  0
   -2.9367   -0.5485    4.5522 N   0  0  0  0  0  0  0  0  0  0  0  0
   -2.1138   -1.5958    3.9276 C   0  0  0  0  0  0  0  0  0  0  0  0
   -1.9902   -1.3822    2.4078 C   0  0  0  0  0  0  0  0  0  0  0  0
   -3.2759   -1.6481    1.8235 O   0  0  0  0  0  0  0  0  0  0  0  0
   -3.4223   -1.3698    0.4160 C   0  0  0  0  0  0  0  0  0  0  0  0
   -2.5291   -2.3129   -0.4278 C   0  0  0  0  0  0  0  0  0  0  0  0
   -1.2080   -1.7529   -0.4768 O   0  0  0  0  0  0  0  0  0  0  0  0
   -0.2556   -2.4872   -1.2531 C   0  0  0  0  0  0  0  0  0  0  0  0
    1.1166   -1.8348   -1.0000 C   0  0  0  0  0  0  0  0  0  0  0  0
    2.1427   -2.4180   -1.8822 N   0  0  0  0  0  0  0  0  0  0  0  0
    2.5735   -1.8744   -3.0895 C   0  0  0  0  0  0  0  0  0  0  0  0
    1.9220   -0.7918   -3.7320 C   0  0  0  0  0  0  0  0  0  0  0  0
    2.4381   -0.2325   -4.9279 C   0  0  0  0  0  0  0  0  0  0  0  0
    3.6160   -0.7443   -5.5084 C   0  0  0  0  0  0  0  0  0  0  0  0
    4.2325   -1.8370   -4.8878 C   0  0  0  0  0  0  0  0  0  0  0  0
    3.7168   -2.3931   -3.7146 C   0  0  0  0  0  0  0  0  0  0  0  0
    4.5429   -3.4295   -3.3452 C   0  0  0  0  0  0  0  0  0  0  0  0
    4.5865   -4.0167   -2.2700 O   0  0  0  0  0  0  0  0  0  0  0  0
    5.5931   -3.5007   -4.2643 N   0  0  0  0  0  0  0  0  0  0  0  0
    6.7814   -4.3633   -4.1197 C   0  0  0  0  0  0  0  0  0  0  0  0
    7.8496   -3.6225   -3.2902 C   0  0  0  0  0  0  0  0  0  0  0  0
    9.1299   -4.4771   -3.2025 C   0  0  0  0  0  0  0  0  0  0  0  0
    9.6303   -4.8640   -4.5759 C   0  0  0  0  0  0  0  0  0  0  0  0
   10.8017   -5.1183   -4.8146 O   0  0  0  0  0  0  0  0  0  0  0  0
    8.6952   -5.1409   -5.5794 N   0  0  0  0  0  0  0  0  0  0  0  0
    7.3220   -4.8826   -5.4503 C   0  0  0  0  0  0  0  0  0  0  0  0
    6.6116   -5.3535   -6.3284 O   0  0  0  0  0  0  0  0  0  0  0  0
    5.3824   -2.5101   -5.2345 C   0  0  0  0  0  0  0  0  0  0  0  0
    6.3046   -2.0745   -5.9164 O   0  0  0  0  0  0  0  0  0  0  0  0
   -4.5790    0.5595    6.5960 H   0  0  0  0  0  0  0  0  0  0  0  0
   -3.2212    1.4721    7.2518 H   0  0  0  0  0  0  0  0  0  0  0  0
   -5.7615    1.4424    4.6164 H   0  0  0  0  0  0  0  0  0  0  0  0
   -2.8123    2.2872    0.9356 H   0  0  0  0  0  0  0  0  0  0  0  0
   -0.6847    3.2041    0.0235 H   0  0  0  0  0  0  0  0  0  0  0  0
   -2.6559    6.9414   -0.8398 H   0  0  0  0  0  0  0  0  0  0  0  0
   -8.1242    2.6827    0.6115 H   0  0  0  0  0  0  0  0  0  0  0  0
   -3.3043    5.3696    2.5068 H   0  0  0  0  0  0  0  0  0  0  0  0
   -1.1645    6.1084    3.4666 H   0  0  0  0  0  0  0  0  0  0  0  0
   -0.1911    4.9379    5.4405 H   0  0  0  0  0  0  0  0  0  0  0  0
   -1.4208    3.0081    6.4704 H   0  0  0  0  0  0  0  0  0  0  0  0
   -3.6493   -0.1106    3.9834 H   0  0  0  0  0  0  0  0  0  0  0  0
   -2.5703   -2.5758    4.1181 H   0  0  0  0  0  0  0  0  0  0  0  0
   -1.1106   -1.5970    4.3790 H   0  0  0  0  0  0  0  0  0  0  0  0
   -1.2320   -2.0696    2.0113 H   0  0  0  0  0  0  0  0  0  0  0  0
   -1.6655   -0.3546    2.1987 H   0  0  0  0  0  0  0  0  0  0  0  0
   -3.1791   -0.3242    0.1918 H   0  0  0  0  0  0  0  0  0  0  0  0
   -4.4698   -1.5309    0.1261 H   0  0  0  0  0  0  0  0  0  0  0  0
   -2.9456   -2.3915   -1.4395 H   0  0  0  0  0  0  0  0  0  0  0  0
   -2.5238   -3.3160    0.0174 H   0  0  0  0  0  0  0  0  0  0  0  0
   -0.2194   -3.5395   -0.9419 H   0  0  0  0  0  0  0  0  0  0  0  0
   -0.5041   -2.4433   -2.3233 H   0  0  0  0  0  0  0  0  0  0  0  0
    1.0427   -0.7496   -1.1448 H   0  0  0  0  0  0  0  0  0  0  0  0
    1.3968   -1.9962    0.0508 H   0  0  0  0  0  0  0  0  0  0  0  0
    2.7180   -3.1709   -1.5150 H   0  0  0  0  0  0  0  0  0  0  0  0
    1.0125   -0.3711   -3.3144 H   0  0  0  0  0  0  0  0  0  0  0  0
    1.9259    0.6036   -5.4001 H   0  0  0  0  0  0  0  0  0  0  0  0
    4.0357   -0.3138   -6.4139 H   0  0  0  0  0  0  0  0  0  0  0  0
    6.4706   -5.2522   -3.5564 H   0  0  0  0  0  0  0  0  0  0  0  0
    7.4614   -3.4008   -2.2866 H   0  0  0  0  0  0  0  0  0  0  0  0
    8.0801   -2.6621   -3.7727 H   0  0  0  0  0  0  0  0  0  0  0  0
    9.9143   -3.9237   -2.6716 H   0  0  0  0  0  0  0  0  0  0  0  0
    8.9420   -5.3868   -2.6186 H   0  0  0  0  0  0  0  0  0  0  0  0
    9.0297   -5.5117   -6.4576 H   0  0  0  0  0  0  0  0  0  0  0  0
  1  2  2  0  0  0  0
  2  3  1  0  0  0  0
  2 28  1  0  0  0  0
  3  4  1  0  0  0  0
  3 57  1  0  0  0  0
  3 58  1  0  0  0  0
  4  5  1  0  0  0  0
  4 27  1  0  0  0  0
  5  6  2  0  0  0  0
  5 59  1  0  0  0  0
  6  7  1  0  0  0  0
  6 22  1  0  0  0  0
  7  8  2  0  0  0  0
  7 20  1  0  0  0  0
  8  9  1  0  0  0  0
  8 17  1  0  0  0  0
  9 10  2  0  0  0  0
  9 15  1  0  0  0  0
 10 11  1  0  0  0  0
 10 60  1  0  0  0  0
 11 12  2  0  0  0  0
 11 61  1  0  0  0  0
 12 13  1  0  0  0  0
 12 14  1  0  0  0  0
 14 15  2  0  0  0  0
 14 62  1  0  0  0  0
 15 16  1  0  0  0  0
 17 18  2  0  0  0  0
 17 19  1  0  0  0  0
 19 20  1  0  0  0  0
 19 63  1  0  0  0  0
 20 21  2  0  0  0  0
 22 23  2  0  0  0  0
 22 27  1  0  0  0  0
 23 24  1  0  0  0  0
 23 64  1  0  0  0  0
 24 25  2  0  0  0  0
 24 65  1  0  0  0  0
 25 26  1  0  0  0  0
 25 66  1  0  0  0  0
 26 27  2  0  0  0  0
 26 67  1  0  0  0  0
 28 29  1  0  0  0  0
 28 68  1  0  0  0  0
 29 30  1  0  0  0  0
 29 69  1  0  0  0  0
 29 70  1  0  0  0  0
 30 31  1  0  0  0  0
 30 71  1  0  0  0  0
 30 72  1  0  0  0  0
 31 32  1  0  0  0  0
 32 33  1  0  0  0  0
 32 73  1  0  0  0  0
 32 74  1  0  0  0  0
 33 34  1  0  0  0  0
 33 75  1  0  0  0  0
 33 76  1  0  0  0  0
 34 35  1  0  0  0  0
 35 36  1  0  0  0  0
 35 77  1  0  0  0  0
 35 78  1  0  0  0  0
 36 37  1  0  0  0  0
 36 79  1  0  0  0  0
 36 80  1  0  0  0  0
 37 38  1  0  0  0  0
 37 81  1  0  0  0  0
 38 39  2  0  0  0  0
 38 43  1  0  0  0  0
 39 40  1  0  0  0  0
 39 82  1  0  0  0  0
 40 41  2  0  0  0  0
 40 83  1  0  0  0  0
 41 42  1  0  0  0  0
 41 84  1  0  0  0  0
 42 43  2  0  0  0  0
 42 55  1  0  0  0  0
 43 44  1  0  0  0  0
 44 45  2  0  0  0  0
 44 46  1  0  0  0  0
 46 47  1  0  0  0  0
 46 55  1  0  0  0  0
 47 48  1  0  0  0  0
 47 53  1  0  0  0  0
 47 85  1  0  0  0  0
 48 49  1  0  0  0  0
 48 86  1  0  0  0  0
 48 87  1  0  0  0  0
 49 50  1  0  0  0  0
 49 88  1  0  0  0  0
 49 89  1  0  0  0  0
 50 51  2  0  0  0  0
 50 52  1  0  0  0  0
 52 53  1  0  0  0  0
 52 90  1  0  0  0  0
 53 54  2  0  0  0  0
 55 56  2  0  0  0  0
M  END
$$$$
protac3895RUN2
  chem.cr 07102519423D
protac3895RUN2
 90 96  0  0  0  0  0  0  0  0999 V2000
   -3.1699   -3.6635   -0.2417 O   0  0  0  0  0  0  0  0  0  0  0  0
   -3.4539   -2.4773   -0.2183 C   0  0  0  0  0  0  0  0  0  0  0  0
   -4.8870   -1.9914   -0.2162 C   0  0  0  0  0  0  0  0  0  0  0  0
   -5.1091   -0.7080    0.4777 N   0  0  0  0  0  0  0  0  0  0  0  0
   -5.7567    0.3985   -0.0853 C   0  0  0  0  0  0  0  0  0  0  0  0
   -5.7828    1.4188    0.8013 C   0  0  0  0  0  0  0  0  0  0  0  0
   -6.1815    2.7052    0.5521 C   0  0  0  0  0  0  0  0  0  0  0  0
   -5.9453    3.8617    1.2224 C   0  0  0  0  0  0  0  0  0  0  0  0
   -5.0548    4.0546    2.2675 C   0  0  0  0  0  0  0  0  0  0  0  0
   -3.7137    3.6549    2.0929 C   0  0  0  0  0  0  0  0  0  0  0  0
   -2.7733    3.8336    3.1200 C   0  0  0  0  0  0  0  0  0  0  0  0
   -3.1616    4.4325    4.3276 C   0  0  0  0  0  0  0  0  0  0  0  0
   -1.9869    4.6475    5.6181 Cl  0  0  0  0  0  0  0  0  0  0  0  0
   -4.4859    4.8594    4.5072 C   0  0  0  0  0  0  0  0  0  0  0  0
   -5.4315    4.6797    3.4824 C   0  0  0  0  0  0  0  0  0  0  0  0
   -7.0984    5.1775    3.7849 Cl  0  0  0  0  0  0  0  0  0  0  0  0
   -6.4870    4.9059    0.5821 C   0  0  0  0  0  0  0  0  0  0  0  0
   -6.4204    6.1172    0.7408 O   0  0  0  0  0  0  0  0  0  0  0  0
   -7.1597    4.4372   -0.5316 N   0  0  0  0  0  0  0  0  0  0  0  0
   -6.8830    3.0732   -0.5466 C   0  0  0  0  0  0  0  0  0  0  0  0
   -7.3178    2.4514   -1.5087 O   0  0  0  0  0  0  0  0  0  0  0  0
   -5.2812    0.8831    2.0008 C   0  0  0  0  0  0  0  0  0  0  0  0
   -5.4309    1.3075    3.3349 C   0  0  0  0  0  0  0  0  0  0  0  0
   -4.9268    0.5064    4.3818 C   0  0  0  0  0  0  0  0  0  0  0  0
   -4.3602   -0.7580    4.1146 C   0  0  0  0  0  0  0  0  0  0  0  0
   -4.3438   -1.2544    2.7988 C   0  0  0  0  0  0  0  0  0  0  0  0
   -4.8264   -0.4194    1.7820 C   0  0  0  0  0  0  0  0  0  0  0  0
   -2.4991   -1.6178   -0.7685 N   0  0  0  0  0  0  0  0  0  0  0  0
   -1.8255   -0.6054    0.0578 C   0  0  0  0  0  0  0  0  0  0  0  0
   -1.9491    0.8125   -0.5201 C   0  0  0  0  0  0  0  0  0  0  0  0
   -1.3605    0.8127   -1.8314 O   0  0  0  0  0  0  0  0  0  0  0  0
   -1.0799    2.1134   -2.3760 C   0  0  0  0  0  0  0  0  0  0  0  0
    0.4207    2.4604   -2.1776 C   0  0  0  0  0  0  0  0  0  0  0  0
    0.7723    2.3936   -0.7797 O   0  0  0  0  0  0  0  0  0  0  0  0
    1.4835    1.2113   -0.3647 C   0  0  0  0  0  0  0  0  0  0  0  0
    2.9777    1.4014   -0.7036 C   0  0  0  0  0  0  0  0  0  0  0  0
    3.7458    0.1717   -0.4382 N   0  0  0  0  0  0  0  0  0  0  0  0
    5.1350    0.0865   -0.4836 C   0  0  0  0  0  0  0  0  0  0  0  0
    5.9800    1.2137   -0.3251 C   0  0  0  0  0  0  0  0  0  0  0  0
    7.3895    1.0927   -0.4096 C   0  0  0  0  0  0  0  0  0  0  0  0
    7.9873   -0.1583   -0.6580 C   0  0  0  0  0  0  0  0  0  0  0  0
    7.1464   -1.2662   -0.8051 C   0  0  0  0  0  0  0  0  0  0  0  0
    5.7598   -1.1509   -0.7113 C   0  0  0  0  0  0  0  0  0  0  0  0
    5.2270   -2.4024   -0.9259 C   0  0  0  0  0  0  0  0  0  0  0  0
    4.0501   -2.7446   -0.8960 O   0  0  0  0  0  0  0  0  0  0  0  0
    6.2670   -3.3154   -1.1539 N   0  0  0  0  0  0  0  0  0  0  0  0
    6.1043   -4.5464   -1.9574 C   0  0  0  0  0  0  0  0  0  0  0  0
    6.7996   -5.7505   -1.2767 C   0  0  0  0  0  0  0  0  0  0  0  0
    6.7923   -6.9736   -2.2198 C   0  0  0  0  0  0  0  0  0  0  0  0
    7.4163   -6.6382   -3.5526 C   0  0  0  0  0  0  0  0  0  0  0  0
    7.9852   -7.4574   -4.2586 O   0  0  0  0  0  0  0  0  0  0  0  0
    7.1400   -5.3894   -4.1180 N   0  0  0  0  0  0  0  0  0  0  0  0
    6.5550   -4.3339   -3.4019 C   0  0  0  0  0  0  0  0  0  0  0  0
    6.2741   -3.3394   -4.0581 O   0  0  0  0  0  0  0  0  0  0  0  0
    7.4583   -2.5769   -1.0764 C   0  0  0  0  0  0  0  0  0  0  0  0
    8.5613   -3.0538   -1.3222 O   0  0  0  0  0  0  0  0  0  0  0  0
   -5.2191   -1.9054   -1.2556 H   0  0  0  0  0  0  0  0  0  0  0  0
   -5.5105   -2.7528    0.2674 H   0  0  0  0  0  0  0  0  0  0  0  0
   -6.0373    0.3747   -1.1357 H   0  0  0  0  0  0  0  0  0  0  0  0
   -3.4075    3.1934    1.1588 H   0  0  0  0  0  0  0  0  0  0  0  0
   -1.7464    3.5067    2.9789 H   0  0  0  0  0  0  0  0  0  0  0  0
   -4.7816    5.3240    5.4424 H   0  0  0  0  0  0  0  0  0  0  0  0
   -7.3118    4.9856   -1.3628 H   0  0  0  0  0  0  0  0  0  0  0  0
   -5.9815    2.2029    3.5819 H   0  0  0  0  0  0  0  0  0  0  0  0
   -5.0163    0.8512    5.4090 H   0  0  0  0  0  0  0  0  0  0  0  0
   -4.0052   -1.3763    4.9350 H   0  0  0  0  0  0  0  0  0  0  0  0
   -4.0033   -2.2646    2.5898 H   0  0  0  0  0  0  0  0  0  0  0  0
   -1.9725   -1.9830   -1.5521 H   0  0  0  0  0  0  0  0  0  0  0  0
   -0.7632   -0.8678    0.1374 H   0  0  0  0  0  0  0  0  0  0  0  0
   -2.2414   -0.6163    1.0730 H   0  0  0  0  0  0  0  0  0  0  0  0
   -1.4297    1.5112    0.1483 H   0  0  0  0  0  0  0  0  0  0  0  0
   -3.0057    1.1041   -0.5683 H   0  0  0  0  0  0  0  0  0  0  0  0
   -1.7131    2.8866   -1.9209 H   0  0  0  0  0  0  0  0  0  0  0  0
   -1.2904    2.1128   -3.4539 H   0  0  0  0  0  0  0  0  0  0  0  0
    0.5944    3.4770   -2.5543 H   0  0  0  0  0  0  0  0  0  0  0  0
    1.0317    1.7758   -2.7807 H   0  0  0  0  0  0  0  0  0  0  0  0
    1.3764    1.0654    0.7183 H   0  0  0  0  0  0  0  0  0  0  0  0
    1.0877    0.3206   -0.8709 H   0  0  0  0  0  0  0  0  0  0  0  0
    3.0900    1.6739   -1.7605 H   0  0  0  0  0  0  0  0  0  0  0  0
    3.3584    2.2331   -0.0985 H   0  0  0  0  0  0  0  0  0  0  0  0
    3.2595   -0.7167   -0.5144 H   0  0  0  0  0  0  0  0  0  0  0  0
    5.5575    2.1921   -0.1307 H   0  0  0  0  0  0  0  0  0  0  0  0
    8.0176    1.9711   -0.2870 H   0  0  0  0  0  0  0  0  0  0  0  0
    9.0658   -0.2653   -0.7442 H   0  0  0  0  0  0  0  0  0  0  0  0
    5.0312   -4.7731   -2.0062 H   0  0  0  0  0  0  0  0  0  0  0  0
    6.3003   -5.9860   -0.3276 H   0  0  0  0  0  0  0  0  0  0  0  0
    7.8390   -5.4946   -1.0337 H   0  0  0  0  0  0  0  0  0  0  0  0
    7.3401   -7.8067   -1.7631 H   0  0  0  0  0  0  0  0  0  0  0  0
    5.7665   -7.3234   -2.3848 H   0  0  0  0  0  0  0  0  0  0  0  0
    7.4406   -5.2130   -5.0649 H   0  0  0  0  0  0  0  0  0  0  0  0
  1  2  2  0  0  0  0
  2  3  1  0  0  0  0
  2 28  1  0  0  0  0
  3  4  1  0  0  0  0
  3 57  1  0  0  0  0
  3 58  1  0  0  0  0
  4  5  1  0  0  0  0
  4 27  1  0  0  0  0
  5  6  2  0  0  0  0
  5 59  1  0  0  0  0
  6  7  1  0  0  0  0
  6 22  1  0  0  0  0
  7  8  2  0  0  0  0
  7 20  1  0  0  0  0
  8  9  1  0  0  0  0
  8 17  1  0  0  0  0
  9 10  2  0  0  0  0
  9 15  1  0  0  0  0
 10 11  1  0  0  0  0
 10 60  1  0  0  0  0
 11 12  2  0  0  0  0
 11 61  1  0  0  0  0
 12 13  1  0  0  0  0
 12 14  1  0  0  0  0
 14 15  2  0  0  0  0
 14 62  1  0  0  0  0
 15 16  1  0  0  0  0
 17 18  2  0  0  0  0
 17 19  1  0  0  0  0
 19 20  1  0  0  0  0
 19 63  1  0  0  0  0
 20 21  2  0  0  0  0
 22 23  2  0  0  0  0
 22 27  1  0  0  0  0
 23 24  1  0  0  0  0
 23 64  1  0  0  0  0
 24 25  2  0  0  0  0
 24 65  1  0  0  0  0
 25 26  1  0  0  0  0
 25 66  1  0  0  0  0
 26 27  2  0  0  0  0
 26 67  1  0  0  0  0
 28 29  1  0  0  0  0
 28 68  1  0  0  0  0
 29 30  1  0  0  0  0
 29 69  1  0  0  0  0
 29 70  1  0  0  0  0
 30 31  1  0  0  0  0
 30 71  1  0  0  0  0
 30 72  1  0  0  0  0
 31 32  1  0  0  0  0
 32 33  1  0  0  0  0
 32 73  1  0  0  0  0
 32 74  1  0  0  0  0
 33 34  1  0  0  0  0
 33 75  1  0  0  0  0
 33 76  1  0  0  0  0
 34 35  1  0  0  0  0
 35 36  1  0  0  0  0
 35 77  1  0  0  0  0
 35 78  1  0  0  0  0
 36 37  1  0  0  0  0
 36 79  1  0  0  0  0
 36 80  1  0  0  0  0
 37 38  1  0  0  0  0
 37 81  1  0  0  0  0
 38 39  2  0  0  0  0
 38 43  1  0  0  0  0
 39 40  1  0  0  0  0
 39 82  1  0  0  0  0
 40 41  2  0  0  0  0
 40 83  1  0  0  0  0
 41 42  1  0  0  0  0
 41 84  1  0  0  0  0
 42 43  2  0  0  0  0
 42 55  1  0  0  0  0
 43 44  1  0  0  0  0
 44 45  2  0  0  0  0
 44 46  1  0  0  0  0
 46 47  1  0  0  0  0
 46 55  1  0  0  0  0
 47 48  1  0  0  0  0
 47 53  1  0  0  0  0
 47 85  1  0  0  0  0
 48 49  1  0  0  0  0
 48 86  1  0  0  0  0
 48 87  1  0  0  0  0
 49 50  1  0  0  0  0
 49 88  1  0  0  0  0
 49 89  1  0  0  0  0
 50 51  2  0  0  0  0
 50 52  1  0  0  0  0
 52 53  1  0  0  0  0
 52 90  1  0  0  0  0
 53 54  2  0  0  0  0
 55 56  2  0  0  0  0
M  END
$$$$
protac3895RUN2
  chem.cr 07102519423D
protac3895RUN2
 90 96  0  0  0  0  0  0  0  0999 V2000
   -2.7556    0.4157   -3.3852 O   0  0  0  0  0  0  0  0  0  0  0  0
   -3.7873    0.7949   -2.8486 C   0  0  0  0  0  0  0  0  0  0  0  0
   -4.9806   -0.1020   -2.6303 C   0  0  0  0  0  0  0  0  0  0  0  0
   -5.3153   -0.3081   -1.2054 N   0  0  0  0  0  0  0  0  0  0  0  0
   -6.4262    0.2393   -0.5613 C   0  0  0  0  0  0  0  0  0  0  0  0
   -6.3232    0.0875    0.7787 C   0  0  0  0  0  0  0  0  0  0  0  0
   -7.1509    0.6748    1.7093 C   0  0  0  0  0  0  0  0  0  0  0  0
   -7.0471    0.8502    3.0547 C   0  0  0  0  0  0  0  0  0  0  0  0
   -5.9755    0.5570    3.8829 C   0  0  0  0  0  0  0  0  0  0  0  0
   -4.7350    1.1880    3.6589 C   0  0  0  0  0  0  0  0  0  0  0  0
   -3.6456    0.9383    4.5113 C   0  0  0  0  0  0  0  0  0  0  0  0
   -3.7865    0.0545    5.5901 C   0  0  0  0  0  0  0  0  0  0  0  0
   -2.4113   -0.2738    6.6389 Cl  0  0  0  0  0  0  0  0  0  0  0  0
   -5.0200   -0.5686    5.8344 C   0  0  0  0  0  0  0  0  0  0  0  0
   -6.1176   -0.3115    4.9938 C   0  0  0  0  0  0  0  0  0  0  0  0
   -7.6386   -1.1466    5.3152 Cl  0  0  0  0  0  0  0  0  0  0  0  0
   -8.0797    1.5548    3.5316 C   0  0  0  0  0  0  0  0  0  0  0  0
   -8.3415    2.0328    4.6296 O   0  0  0  0  0  0  0  0  0  0  0  0
   -8.9499    1.8154    2.4929 N   0  0  0  0  0  0  0  0  0  0  0  0
   -8.3068    1.3045    1.3717 C   0  0  0  0  0  0  0  0  0  0  0  0
   -8.8793    1.5048    0.3068 O   0  0  0  0  0  0  0  0  0  0  0  0
   -5.1636   -0.6938    0.9716 C   0  0  0  0  0  0  0  0  0  0  0  0
   -4.6970   -1.4585    2.0608 C   0  0  0  0  0  0  0  0  0  0  0  0
   -3.4763   -2.1602    1.9494 C   0  0  0  0  0  0  0  0  0  0  0  0
   -2.7673   -2.1866    0.7301 C   0  0  0  0  0  0  0  0  0  0  0  0
   -3.3106   -1.5687   -0.4089 C   0  0  0  0  0  0  0  0  0  0  0  0
   -4.5098   -0.8610   -0.2549 C   0  0  0  0  0  0  0  0  0  0  0  0
   -3.7627    1.9803   -2.1010 N   0  0  0  0  0  0  0  0  0  0  0  0
   -2.6544    2.2633   -1.1787 C   0  0  0  0  0  0  0  0  0  0  0  0
   -1.4765    2.9460   -1.8879 C   0  0  0  0  0  0  0  0  0  0  0  0
   -0.5369    3.3340   -0.8759 O   0  0  0  0  0  0  0  0  0  0  0  0
    0.0788    4.6204   -1.0586 C   0  0  0  0  0  0  0  0  0  0  0  0
    0.8932    4.6609   -2.3836 C   0  0  0  0  0  0  0  0  0  0  0  0
    2.2468    4.2341   -2.1722 O   0  0  0  0  0  0  0  0  0  0  0  0
    2.4629    2.8771   -1.7562 C   0  0  0  0  0  0  0  0  0  0  0  0
    3.9679    2.6405   -1.9606 C   0  0  0  0  0  0  0  0  0  0  0  0
    4.4513    1.4101   -1.3038 N   0  0  0  0  0  0  0  0  0  0  0  0
    5.8032    1.1155   -1.1265 C   0  0  0  0  0  0  0  0  0  0  0  0
    6.8144    2.0990   -1.2704 C   0  0  0  0  0  0  0  0  0  0  0  0
    8.1834    1.7777   -1.1180 C   0  0  0  0  0  0  0  0  0  0  0  0
    8.5803    0.4586   -0.8330 C   0  0  0  0  0  0  0  0  0  0  0  0
    7.5775   -0.5099   -0.6935 C   0  0  0  0  0  0  0  0  0  0  0  0
    6.2258   -0.1898   -0.8244 C   0  0  0  0  0  0  0  0  0  0  0  0
    5.5087   -1.3533   -0.6625 C   0  0  0  0  0  0  0  0  0  0  0  0
    4.2918   -1.5074   -0.6754 O   0  0  0  0  0  0  0  0  0  0  0  0
    6.3949   -2.4180   -0.4429 N   0  0  0  0  0  0  0  0  0  0  0  0
    6.0777   -3.8174   -0.8036 C   0  0  0  0  0  0  0  0  0  0  0  0
    6.5421   -4.8054    0.2935 C   0  0  0  0  0  0  0  0  0  0  0  0
    6.2714   -6.2607   -0.1512 C   0  0  0  0  0  0  0  0  0  0  0  0
    6.8579   -6.5568   -1.5147 C   0  0  0  0  0  0  0  0  0  0  0  0
    7.1713   -7.6791   -1.8778 O   0  0  0  0  0  0  0  0  0  0  0  0
    6.8679   -5.5459   -2.4782 N   0  0  0  0  0  0  0  0  0  0  0  0
    6.6136   -4.1967   -2.1851 C   0  0  0  0  0  0  0  0  0  0  0  0
    6.6546   -3.4311   -3.1375 O   0  0  0  0  0  0  0  0  0  0  0  0
    7.6858   -1.8645   -0.4600 C   0  0  0  0  0  0  0  0  0  0  0  0
    8.7045   -2.5365   -0.3657 O   0  0  0  0  0  0  0  0  0  0  0  0
   -5.8470    0.3106   -3.1579 H   0  0  0  0  0  0  0  0  0  0  0  0
   -4.7598   -1.0823   -3.0716 H   0  0  0  0  0  0  0  0  0  0  0  0
   -7.1450    0.7949   -1.1566 H   0  0  0  0  0  0  0  0  0  0  0  0
   -4.6153    1.8645    2.8183 H   0  0  0  0  0  0  0  0  0  0  0  0
   -2.6912    1.4251    4.3348 H   0  0  0  0  0  0  0  0  0  0  0  0
   -5.1281   -1.2501    6.6732 H   0  0  0  0  0  0  0  0  0  0  0  0
   -9.6088    2.5753    2.4731 H   0  0  0  0  0  0  0  0  0  0  0  0
   -5.2660   -1.5586    2.9728 H   0  0  0  0  0  0  0  0  0  0  0  0
   -3.0870   -2.7067    2.8031 H   0  0  0  0  0  0  0  0  0  0  0  0
   -1.8331   -2.7342    0.6510 H   0  0  0  0  0  0  0  0  0  0  0  0
   -2.8203   -1.6532   -1.3777 H   0  0  0  0  0  0  0  0  0  0  0  0
   -4.6580    2.3994   -1.8858 H   0  0  0  0  0  0  0  0  0  0  0  0
   -2.3032    1.3253   -0.7186 H   0  0  0  0  0  0  0  0  0  0  0  0
   -3.0221    2.9198   -0.3776 H   0  0  0  0  0  0  0  0  0  0  0  0
   -1.8502    3.8146   -2.4462 H   0  0  0  0  0  0  0  0  0  0  0  0
   -1.0114    2.2466   -2.5970 H   0  0  0  0  0  0  0  0  0  0  0  0
    0.7379    4.8538   -0.2133 H   0  0  0  0  0  0  0  0  0  0  0  0
   -0.6957    5.3967   -1.0840 H   0  0  0  0  0  0  0  0  0  0  0  0
    0.9045    5.6960   -2.7469 H   0  0  0  0  0  0  0  0  0  0  0  0
    0.4214    4.0554   -3.1614 H   0  0  0  0  0  0  0  0  0  0  0  0
    2.2071    2.7561   -0.6948 H   0  0  0  0  0  0  0  0  0  0  0  0
    1.8679    2.1691   -2.3470 H   0  0  0  0  0  0  0  0  0  0  0  0
    4.1896    2.5926   -3.0387 H   0  0  0  0  0  0  0  0  0  0  0  0
    4.4802    3.5241   -1.5536 H   0  0  0  0  0  0  0  0  0  0  0  0
    3.8051    0.6337   -1.1824 H   0  0  0  0  0  0  0  0  0  0  0  0
    6.5588    3.1269   -1.5060 H   0  0  0  0  0  0  0  0  0  0  0  0
    8.9382    2.5541   -1.2256 H   0  0  0  0  0  0  0  0  0  0  0  0
    9.6308    0.1988   -0.7277 H   0  0  0  0  0  0  0  0  0  0  0  0
    4.9863   -3.8961   -0.8712 H   0  0  0  0  0  0  0  0  0  0  0  0
    6.0283   -4.5889    1.2380 H   0  0  0  0  0  0  0  0  0  0  0  0
    7.6197   -4.6853    0.4745 H   0  0  0  0  0  0  0  0  0  0  0  0
    6.7007   -6.9564    0.5797 H   0  0  0  0  0  0  0  0  0  0  0  0
    5.1898   -6.4552   -0.1806 H   0  0  0  0  0  0  0  0  0  0  0  0
    7.1779   -5.7796   -3.4093 H   0  0  0  0  0  0  0  0  0  0  0  0
  1  2  2  0  0  0  0
  2  3  1  0  0  0  0
  2 28  1  0  0  0  0
  3  4  1  0  0  0  0
  3 57  1  0  0  0  0
  3 58  1  0  0  0  0
  4  5  1  0  0  0  0
  4 27  1  0  0  0  0
  5  6  2  0  0  0  0
  5 59  1  0  0  0  0
  6  7  1  0  0  0  0
  6 22  1  0  0  0  0
  7  8  2  0  0  0  0
  7 20  1  0  0  0  0
  8  9  1  0  0  0  0
  8 17  1  0  0  0  0
  9 10  2  0  0  0  0
  9 15  1  0  0  0  0
 10 11  1  0  0  0  0
 10 60  1  0  0  0  0
 11 12  2  0  0  0  0
 11 61  1  0  0  0  0
 12 13  1  0  0  0  0
 12 14  1  0  0  0  0
 14 15  2  0  0  0  0
 14 62  1  0  0  0  0
 15 16  1  0  0  0  0
 17 18  2  0  0  0  0
 17 19  1  0  0  0  0
 19 20  1  0  0  0  0
 19 63  1  0  0  0  0
 20 21  2  0  0  0  0
 22 23  2  0  0  0  0
 22 27  1  0  0  0  0
 23 24  1  0  0  0  0
 23 64  1  0  0  0  0
 24 25  2  0  0  0  0
 24 65  1  0  0  0  0
 25 26  1  0  0  0  0
 25 66  1  0  0  0  0
 26 27  2  0  0  0  0
 26 67  1  0  0  0  0
 28 29  1  0  0  0  0
 28 68  1  0  0  0  0
 29 30  1  0  0  0  0
 29 69  1  0  0  0  0
 29 70  1  0  0  0  0
 30 31  1  0  0  0  0
 30 71  1  0  0  0  0
 30 72  1  0  0  0  0
 31 32  1  0  0  0  0
 32 33  1  0  0  0  0
 32 73  1  0  0  0  0
 32 74  1  0  0  0  0
 33 34  1  0  0  0  0
 33 75  1  0  0  0  0
 33 76  1  0  0  0  0
 34 35  1  0  0  0  0
 35 36  1  0  0  0  0
 35 77  1  0  0  0  0
 35 78  1  0  0  0  0
 36 37  1  0  0  0  0
 36 79  1  0  0  0  0
 36 80  1  0  0  0  0
 37 38  1  0  0  0  0
 37 81  1  0  0  0  0
 38 39  2  0  0  0  0
 38 43  1  0  0  0  0
 39 40  1  0  0  0  0
 39 82  1  0  0  0  0
 40 41  2  0  0  0  0
 40 83  1  0  0  0  0
 41 42  1  0  0  0  0
 41 84  1  0  0  0  0
 42 43  2  0  0  0  0
 42 55  1  0  0  0  0
 43 44  1  0  0  0  0
 44 45  2  0  0  0  0
 44 46  1  0  0  0  0
 46 47  1  0  0  0  0
 46 55  1  0  0  0  0
 47 48  1  0  0  0  0
 47 53  1  0  0  0  0
 47 85  1  0  0  0  0
 48 49  1  0  0  0  0
 48 86  1  0  0  0  0
 48 87  1  0  0  0  0
 49 50  1  0  0  0  0
 49 88  1  0  0  0  0
 49 89  1  0  0  0  0
 50 51  2  0  0  0  0
 50 52  1  0  0  0  0
 52 53  1  0  0  0  0
 52 90  1  0  0  0  0
 53 54  2  0  0  0  0
 55 56  2  0  0  0  0
M  END
$$$$
protac3895RUN2
  chem.cr 07102519423D
protac3895RUN2
 90 96  0  0  0  0  0  0  0  0999 V2000
   -5.4844    1.8105   -2.9571 O   0  0  0  0  0  0  0  0  0  0  0  0
   -5.1558    2.4690   -1.9807 C   0  0  0  0  0  0  0  0  0  0  0  0
   -6.1358    3.0689   -0.9995 C   0  0  0  0  0  0  0  0  0  0  0  0
   -6.9242    2.0804   -0.2338 N   0  0  0  0  0  0  0  0  0  0  0  0
   -8.1835    2.4429    0.2731 C   0  0  0  0  0  0  0  0  0  0  0  0
   -8.3930    1.8967    1.4909 C   0  0  0  0  0  0  0  0  0  0  0  0
   -9.4246    2.1779    2.3461 C   0  0  0  0  0  0  0  0  0  0  0  0
   -9.5792    1.9515    3.6780 C   0  0  0  0  0  0  0  0  0  0  0  0
   -8.6175    1.5148    4.5751 C   0  0  0  0  0  0  0  0  0  0  0  0
   -7.4060    2.2307    4.6751 C   0  0  0  0  0  0  0  0  0  0  0  0
   -6.4176    1.8460    5.5966 C   0  0  0  0  0  0  0  0  0  0  0  0
   -6.6363    0.7441    6.4376 C   0  0  0  0  0  0  0  0  0  0  0  0
   -5.3997    0.2585    7.5903 Cl  0  0  0  0  0  0  0  0  0  0  0  0
   -7.8420    0.0289    6.3583 C   0  0  0  0  0  0  0  0  0  0  0  0
   -8.8350    0.4119    5.4388 C   0  0  0  0  0  0  0  0  0  0  0  0
  -10.3070   -0.5555    5.3424 Cl  0  0  0  0  0  0  0  0  0  0  0  0
  -10.7426    2.4479    4.1153 C   0  0  0  0  0  0  0  0  0  0  0  0
  -11.2365    2.5820    5.2275 O   0  0  0  0  0  0  0  0  0  0  0  0
  -11.4265    2.9830    3.0392 N   0  0  0  0  0  0  0  0  0  0  0  0
  -10.5380    2.8562    1.9750 C   0  0  0  0  0  0  0  0  0  0  0  0
  -10.9015    3.3524    0.9156 O   0  0  0  0  0  0  0  0  0  0  0  0
   -7.3115    1.0285    1.6915 C   0  0  0  0  0  0  0  0  0  0  0  0
   -7.1849   -0.0980    2.5266 C   0  0  0  0  0  0  0  0  0  0  0  0
   -6.0337   -0.9071    2.4373 C   0  0  0  0  0  0  0  0  0  0  0  0
   -5.0540   -0.6565    1.4540 C   0  0  0  0  0  0  0  0  0  0  0  0
   -5.2483    0.3748    0.5187 C   0  0  0  0  0  0  0  0  0  0  0  0
   -6.3831    1.1881    0.6584 C   0  0  0  0  0  0  0  0  0  0  0  0
   -3.8159    2.8687   -1.8566 N   0  0  0  0  0  0  0  0  0  0  0  0
   -2.7445    2.3070   -2.6936 C   0  0  0  0  0  0  0  0  0  0  0  0
   -1.3544    2.7665   -2.2243 C   0  0  0  0  0  0  0  0  0  0  0  0
   -0.3839    2.0680   -3.0116 O   0  0  0  0  0  0  0  0  0  0  0  0
    0.9791    2.3512   -2.6697 C   0  0  0  0  0  0  0  0  0  0  0  0
    1.8687    1.4209   -3.5060 C   0  0  0  0  0  0  0  0  0  0  0  0
    3.2208    1.6177   -3.0761 O   0  0  0  0  0  0  0  0  0  0  0  0
    4.1465    0.6383   -3.5567 C   0  0  0  0  0  0  0  0  0  0  0  0
    5.5291    1.0036   -2.9957 C   0  0  0  0  0  0  0  0  0  0  0  0
    6.4106   -0.1732   -3.0474 N   0  0  0  0  0  0  0  0  0  0  0  0
    7.7511   -0.1695   -2.6820 C   0  0  0  0  0  0  0  0  0  0  0  0
    8.5717    0.9789   -2.7794 C   0  0  0  0  0  0  0  0  0  0  0  0
    9.9330    0.9390   -2.3874 C   0  0  0  0  0  0  0  0  0  0  0  0
   10.5019   -0.2513   -1.8884 C   0  0  0  0  0  0  0  0  0  0  0  0
    9.6810   -1.3815   -1.7980 C   0  0  0  0  0  0  0  0  0  0  0  0
    8.3412   -1.3416   -2.1903 C   0  0  0  0  0  0  0  0  0  0  0  0
    7.7935   -2.5814   -1.9511 C   0  0  0  0  0  0  0  0  0  0  0  0
    6.6078   -2.8906   -1.9223 O   0  0  0  0  0  0  0  0  0  0  0  0
    8.7752   -3.3842   -1.3651 N   0  0  0  0  0  0  0  0  0  0  0  0
    8.5965   -4.7844   -0.9382 C   0  0  0  0  0  0  0  0  0  0  0  0
    8.5747   -4.8618    0.6057 C   0  0  0  0  0  0  0  0  0  0  0  0
    8.5742   -6.3337    1.0662 C   0  0  0  0  0  0  0  0  0  0  0  0
    9.7410   -7.0889    0.4741 C   0  0  0  0  0  0  0  0  0  0  0  0
   10.2660   -8.0499    1.0146 O   0  0  0  0  0  0  0  0  0  0  0  0
   10.0997   -6.8246   -0.8522 N   0  0  0  0  0  0  0  0  0  0  0  0
    9.6365   -5.7084   -1.5674 C   0  0  0  0  0  0  0  0  0  0  0  0
    9.9280   -5.6821   -2.7559 O   0  0  0  0  0  0  0  0  0  0  0  0
    9.9625   -2.6404   -1.3201 C   0  0  0  0  0  0  0  0  0  0  0  0
   10.9364   -2.9922   -0.6629 O   0  0  0  0  0  0  0  0  0  0  0  0
   -5.6087    3.7067   -0.2821 H   0  0  0  0  0  0  0  0  0  0  0  0
   -6.8263    3.7014   -1.5695 H   0  0  0  0  0  0  0  0  0  0  0  0
   -8.7714    3.1829   -0.2636 H   0  0  0  0  0  0  0  0  0  0  0  0
   -7.2325    3.0871    4.0282 H   0  0  0  0  0  0  0  0  0  0  0  0
   -5.4869    2.4005    5.6588 H   0  0  0  0  0  0  0  0  0  0  0  0
   -8.0083   -0.8261    7.0078 H   0  0  0  0  0  0  0  0  0  0  0  0
  -12.1080    3.7212    3.1162 H   0  0  0  0  0  0  0  0  0  0  0  0
   -7.9862   -0.4026    3.1832 H   0  0  0  0  0  0  0  0  0  0  0  0
   -5.9283   -1.7619    3.0997 H   0  0  0  0  0  0  0  0  0  0  0  0
   -4.1917   -1.3126    1.3669 H   0  0  0  0  0  0  0  0  0  0  0  0
   -4.5651    0.4913   -0.3158 H   0  0  0  0  0  0  0  0  0  0  0  0
   -3.5709    3.5228   -1.1256 H   0  0  0  0  0  0  0  0  0  0  0  0
   -2.9018    2.6126   -3.7374 H   0  0  0  0  0  0  0  0  0  0  0  0
   -2.8013    1.2104   -2.6593 H   0  0  0  0  0  0  0  0  0  0  0  0
   -1.2296    2.5286   -1.1602 H   0  0  0  0  0  0  0  0  0  0  0  0
   -1.2539    3.8520   -2.3549 H   0  0  0  0  0  0  0  0  0  0  0  0
    1.1574    2.1546   -1.6039 H   0  0  0  0  0  0  0  0  0  0  0  0
    1.2322    3.3978   -2.8844 H   0  0  0  0  0  0  0  0  0  0  0  0
    1.7613    1.6559   -4.5726 H   0  0  0  0  0  0  0  0  0  0  0  0
    1.5512    0.3830   -3.3407 H   0  0  0  0  0  0  0  0  0  0  0  0
    3.8551   -0.3583   -3.1987 H   0  0  0  0  0  0  0  0  0  0  0  0
    4.1798    0.6214   -4.6548 H   0  0  0  0  0  0  0  0  0  0  0  0
    5.9428    1.8385   -3.5755 H   0  0  0  0  0  0  0  0  0  0  0  0
    5.4185    1.3302   -1.9524 H   0  0  0  0  0  0  0  0  0  0  0  0
    5.9634   -1.0831   -2.9886 H   0  0  0  0  0  0  0  0  0  0  0  0
    8.1653    1.9072   -3.1658 H   0  0  0  0  0  0  0  0  0  0  0  0
   10.5457    1.8330   -2.4691 H   0  0  0  0  0  0  0  0  0  0  0  0
   11.5434   -0.2960   -1.5783 H   0  0  0  0  0  0  0  0  0  0  0  0
    7.6200   -5.1254   -1.3100 H   0  0  0  0  0  0  0  0  0  0  0  0
    7.6979   -4.3262    0.9955 H   0  0  0  0  0  0  0  0  0  0  0  0
    9.4640   -4.3605    1.0132 H   0  0  0  0  0  0  0  0  0  0  0  0
    8.6266   -6.3840    2.1612 H   0  0  0  0  0  0  0  0  0  0  0  0
    7.6407   -6.8291    0.7703 H   0  0  0  0  0  0  0  0  0  0  0  0
   10.7807   -7.4228   -1.2954 H   0  0  0  0  0  0  0  0  0  0  0  0
  1  2  2  0  0  0  0
  2  3  1  0  0  0  0
  2 28  1  0  0  0  0
  3  4  1  0  0  0  0
  3 57  1  0  0  0  0
  3 58  1  0  0  0  0
  4  5  1  0  0  0  0
  4 27  1  0  0  0  0
  5  6  2  0  0  0  0
  5 59  1  0  0  0  0
  6  7  1  0  0  0  0
  6 22  1  0  0  0  0
  7  8  2  0  0  0  0
  7 20  1  0  0  0  0
  8  9  1  0  0  0  0
  8 17  1  0  0  0  0
  9 10  2  0  0  0  0
  9 15  1  0  0  0  0
 10 11  1  0  0  0  0
 10 60  1  0  0  0  0
 11 12  2  0  0  0  0
 11 61  1  0  0  0  0
 12 13  1  0  0  0  0
 12 14  1  0  0  0  0
 14 15  2  0  0  0  0
 14 62  1  0  0  0  0
 15 16  1  0  0  0  0
 17 18  2  0  0  0  0
 17 19  1  0  0  0  0
 19 20  1  0  0  0  0
 19 63  1  0  0  0  0
 20 21  2  0  0  0  0
 22 23  2  0  0  0  0
 22 27  1  0  0  0  0
 23 24  1  0  0  0  0
 23 64  1  0  0  0  0
 24 25  2  0  0  0  0
 24 65  1  0  0  0  0
 25 26  1  0  0  0  0
 25 66  1  0  0  0  0
 26 27  2  0  0  0  0
 26 67  1  0  0  0  0
 28 29  1  0  0  0  0
 28 68  1  0  0  0  0
 29 30  1  0  0  0  0
 29 69  1  0  0  0  0
 29 70  1  0  0  0  0
 30 31  1  0  0  0  0
 30 71  1  0  0  0  0
 30 72  1  0  0  0  0
 31 32  1  0  0  0  0
 32 33  1  0  0  0  0
 32 73  1  0  0  0  0
 32 74  1  0  0  0  0
 33 34  1  0  0  0  0
 33 75  1  0  0  0  0
 33 76  1  0  0  0  0
 34 35  1  0  0  0  0
 35 36  1  0  0  0  0
 35 77  1  0  0  0  0
 35 78  1  0  0  0  0
 36 37  1  0  0  0  0
 36 79  1  0  0  0  0
 36 80  1  0  0  0  0
 37 38  1  0  0  0  0
 37 81  1  0  0  0  0
 38 39  2  0  0  0  0
 38 43  1  0  0  0  0
 39 40  1  0  0  0  0
 39 82  1  0  0  0  0
 40 41  2  0  0  0  0
 40 83  1  0  0  0  0
 41 42  1  0  0  0  0
 41 84  1  0  0  0  0
 42 43  2  0  0  0  0
 42 55  1  0  0  0  0
 43 44  1  0  0  0  0
 44 45  2  0  0  0  0
 44 46  1  0  0  0  0
 46 47  1  0  0  0  0
 46 55  1  0  0  0  0
 47 48  1  0  0  0  0
 47 53  1  0  0  0  0
 47 85  1  0  0  0  0
 48 49  1  0  0  0  0
 48 86  1  0  0  0  0
 48 87  1  0  0  0  0
 49 50  1  0  0  0  0
 49 88  1  0  0  0  0
 49 89  1  0  0  0  0
 50 51  2  0  0  0  0
 50 52  1  0  0  0  0
 52 53  1  0  0  0  0
 52 90  1  0  0  0  0
 53 54  2  0  0  0  0
 55 56  2  0  0  0  0
M  END
$$$$
protac3895RUN2
  chem.cr 07102519423D
protac3895RUN2
 90 96  0  0  0  0  0  0  0  0999 V2000
   -2.3839    2.4656    5.3887 O   0  0  0  0  0  0  0  0  0  0  0  0
   -2.3954    1.4910    4.6514 C   0  0  0  0  0  0  0  0  0  0  0  0
   -3.3881    0.3601    4.7692 C   0  0  0  0  0  0  0  0  0  0  0  0
   -4.6765    0.6348    4.1039 N   0  0  0  0  0  0  0  0  0  0  0  0
   -4.7500    1.1726    2.8135 C   0  0  0  0  0  0  0  0  0  0  0  0
   -5.9436    0.9052    2.2427 C   0  0  0  0  0  0  0  0  0  0  0  0
   -6.3869    1.4413    1.0606 C   0  0  0  0  0  0  0  0  0  0  0  0
   -7.6223    1.5133    0.4987 C   0  0  0  0  0  0  0  0  0  0  0  0
   -8.8316    1.1535    1.0609 C   0  0  0  0  0  0  0  0  0  0  0  0
   -9.2270    1.7572    2.2718 C   0  0  0  0  0  0  0  0  0  0  0  0
  -10.4674    1.4439    2.8536 C   0  0  0  0  0  0  0  0  0  0  0  0
  -11.3300    0.5367    2.2199 C   0  0  0  0  0  0  0  0  0  0  0  0
  -12.8878    0.1549    2.9378 Cl  0  0  0  0  0  0  0  0  0  0  0  0
  -10.9489   -0.0684    1.0126 C   0  0  0  0  0  0  0  0  0  0  0  0
   -9.7071    0.2357    0.4302 C   0  0  0  0  0  0  0  0  0  0  0  0
   -9.2347   -0.6122   -1.0434 Cl  0  0  0  0  0  0  0  0  0  0  0  0
   -7.5871    2.1681   -0.6685 C   0  0  0  0  0  0  0  0  0  0  0  0
   -8.4465    2.5138   -1.4675 O   0  0  0  0  0  0  0  0  0  0  0  0
   -6.2855    2.5612   -0.9084 N   0  0  0  0  0  0  0  0  0  0  0  0
   -5.5740    2.0877    0.1869 C   0  0  0  0  0  0  0  0  0  0  0  0
   -4.3674    2.3111    0.1646 O   0  0  0  0  0  0  0  0  0  0  0  0
   -6.6005    0.0540    3.1538 C   0  0  0  0  0  0  0  0  0  0  0  0
   -7.6948   -0.8253    3.0104 C   0  0  0  0  0  0  0  0  0  0  0  0
   -8.1000   -1.6215    4.1042 C   0  0  0  0  0  0  0  0  0  0  0  0
   -7.3645   -1.6266    5.3073 C   0  0  0  0  0  0  0  0  0  0  0  0
   -6.1845   -0.8688    5.4079 C   0  0  0  0  0  0  0  0  0  0  0  0
   -5.8309   -0.0633    4.3168 C   0  0  0  0  0  0  0  0  0  0  0  0
   -1.5869    1.4930    3.5077 N   0  0  0  0  0  0  0  0  0  0  0  0
   -1.1321    2.7183    2.8360 C   0  0  0  0  0  0  0  0  0  0  0  0
    0.2552    2.4999    2.2139 C   0  0  0  0  0  0  0  0  0  0  0  0
    0.1932    1.2989    1.4311 O   0  0  0  0  0  0  0  0  0  0  0  0
    1.4619    0.7927    1.0209 C   0  0  0  0  0  0  0  0  0  0  0  0
    1.2288   -0.5616    0.3342 C   0  0  0  0  0  0  0  0  0  0  0  0
    2.5247   -1.1302    0.1353 O   0  0  0  0  0  0  0  0  0  0  0  0
    2.5620   -2.3644   -0.5837 C   0  0  0  0  0  0  0  0  0  0  0  0
    4.0297   -2.5987   -0.9890 C   0  0  0  0  0  0  0  0  0  0  0  0
    4.3443   -2.0383   -2.3164 N   0  0  0  0  0  0  0  0  0  0  0  0
    4.9776   -0.8133   -2.4853 C   0  0  0  0  0  0  0  0  0  0  0  0
    4.4898    0.3911   -1.9285 C   0  0  0  0  0  0  0  0  0  0  0  0
    5.1683    1.6181   -2.1229 C   0  0  0  0  0  0  0  0  0  0  0  0
    6.3498    1.6689   -2.8867 C   0  0  0  0  0  0  0  0  0  0  0  0
    6.8089    0.4763   -3.4557 C   0  0  0  0  0  0  0  0  0  0  0  0
    6.1374   -0.7320   -3.2629 C   0  0  0  0  0  0  0  0  0  0  0  0
    6.8498   -1.7184   -3.9030 C   0  0  0  0  0  0  0  0  0  0  0  0
    6.7536   -2.9326   -3.7569 O   0  0  0  0  0  0  0  0  0  0  0  0
    7.9873   -1.1364   -4.4644 N   0  0  0  0  0  0  0  0  0  0  0  0
    9.1610   -1.8767   -4.9635 C   0  0  0  0  0  0  0  0  0  0  0  0
   10.1890   -2.0330   -3.8184 C   0  0  0  0  0  0  0  0  0  0  0  0
   11.5524   -2.4846   -4.3738 C   0  0  0  0  0  0  0  0  0  0  0  0
   12.0397   -1.5172   -5.4252 C   0  0  0  0  0  0  0  0  0  0  0  0
   13.2183   -1.2645   -5.6189 O   0  0  0  0  0  0  0  0  0  0  0  0
   11.1151   -1.0376   -6.3572 N   0  0  0  0  0  0  0  0  0  0  0  0
    9.7323   -1.2357   -6.2286 C   0  0  0  0  0  0  0  0  0  0  0  0
    9.0627   -0.9937   -7.2242 O   0  0  0  0  0  0  0  0  0  0  0  0
    7.9319    0.2408   -4.2109 C   0  0  0  0  0  0  0  0  0  0  0  0
    8.9110    0.9703   -4.3241 O   0  0  0  0  0  0  0  0  0  0  0  0
   -2.9683   -0.5568    4.3414 H   0  0  0  0  0  0  0  0  0  0  0  0
   -3.5753    0.1843    5.8355 H   0  0  0  0  0  0  0  0  0  0  0  0
   -3.9544    1.8262    2.4729 H   0  0  0  0  0  0  0  0  0  0  0  0
   -8.5614    2.4623    2.7651 H   0  0  0  0  0  0  0  0  0  0  0  0
  -10.7574    1.9062    3.7934 H   0  0  0  0  0  0  0  0  0  0  0  0
  -11.6133   -0.7781    0.5309 H   0  0  0  0  0  0  0  0  0  0  0  0
   -5.8947    2.7423   -1.8182 H   0  0  0  0  0  0  0  0  0  0  0  0
   -8.2047   -0.9498    2.0702 H   0  0  0  0  0  0  0  0  0  0  0  0
   -8.9751   -2.2586    4.0083 H   0  0  0  0  0  0  0  0  0  0  0  0
   -7.6824   -2.2543    6.1356 H   0  0  0  0  0  0  0  0  0  0  0  0
   -5.5663   -0.9195    6.2991 H   0  0  0  0  0  0  0  0  0  0  0  0
   -1.4220    0.6166    3.0266 H   0  0  0  0  0  0  0  0  0  0  0  0
   -1.0917    3.5493    3.5542 H   0  0  0  0  0  0  0  0  0  0  0  0
   -1.8469    2.9847    2.0461 H   0  0  0  0  0  0  0  0  0  0  0  0
    0.9900    2.3974    3.0254 H   0  0  0  0  0  0  0  0  0  0  0  0
    0.5314    3.3636    1.5949 H   0  0  0  0  0  0  0  0  0  0  0  0
    2.1162    0.6453    1.8910 H   0  0  0  0  0  0  0  0  0  0  0  0
    1.9571    1.4839    0.3261 H   0  0  0  0  0  0  0  0  0  0  0  0
    0.7103   -0.4063   -0.6213 H   0  0  0  0  0  0  0  0  0  0  0  0
    0.6127   -1.2083    0.9715 H   0  0  0  0  0  0  0  0  0  0  0  0
    2.2220   -3.1826    0.0647 H   0  0  0  0  0  0  0  0  0  0  0  0
    1.9257   -2.3324   -1.4761 H   0  0  0  0  0  0  0  0  0  0  0  0
    4.6970   -2.1751   -0.2257 H   0  0  0  0  0  0  0  0  0  0  0  0
    4.2193   -3.6794   -1.0080 H   0  0  0  0  0  0  0  0  0  0  0  0
    4.6252   -2.7211   -3.0130 H   0  0  0  0  0  0  0  0  0  0  0  0
    3.5678    0.3940   -1.3624 H   0  0  0  0  0  0  0  0  0  0  0  0
    4.7749    2.5299   -1.6818 H   0  0  0  0  0  0  0  0  0  0  0  0
    6.8910    2.6001   -3.0350 H   0  0  0  0  0  0  0  0  0  0  0  0
    8.8230   -2.8790   -5.2607 H   0  0  0  0  0  0  0  0  0  0  0  0
    9.8132   -2.7427   -3.0710 H   0  0  0  0  0  0  0  0  0  0  0  0
   10.3156   -1.0688   -3.3078 H   0  0  0  0  0  0  0  0  0  0  0  0
   12.2917   -2.5403   -3.5654 H   0  0  0  0  0  0  0  0  0  0  0  0
   11.4794   -3.4863   -4.8131 H   0  0  0  0  0  0  0  0  0  0  0  0
   11.4528   -0.5208   -7.1555 H   0  0  0  0  0  0  0  0  0  0  0  0
  1  2  2  0  0  0  0
  2  3  1  0  0  0  0
  2 28  1  0  0  0  0
  3  4  1  0  0  0  0
  3 57  1  0  0  0  0
  3 58  1  0  0  0  0
  4  5  1  0  0  0  0
  4 27  1  0  0  0  0
  5  6  2  0  0  0  0
  5 59  1  0  0  0  0
  6  7  1  0  0  0  0
  6 22  1  0  0  0  0
  7  8  2  0  0  0  0
  7 20  1  0  0  0  0
  8  9  1  0  0  0  0
  8 17  1  0  0  0  0
  9 10  2  0  0  0  0
  9 15  1  0  0  0  0
 10 11  1  0  0  0  0
 10 60  1  0  0  0  0
 11 12  2  0  0  0  0
 11 61  1  0  0  0  0
 12 13  1  0  0  0  0
 12 14  1  0  0  0  0
 14 15  2  0  0  0  0
 14 62  1  0  0  0  0
 15 16  1  0  0  0  0
 17 18  2  0  0  0  0
 17 19  1  0  0  0  0
 19 20  1  0  0  0  0
 19 63  1  0  0  0  0
 20 21  2  0  0  0  0
 22 23  2  0  0  0  0
 22 27  1  0  0  0  0
 23 24  1  0  0  0  0
 23 64  1  0  0  0  0
 24 25  2  0  0  0  0
 24 65  1  0  0  0  0
 25 26  1  0  0  0  0
 25 66  1  0  0  0  0
 26 27  2  0  0  0  0
 26 67  1  0  0  0  0
 28 29  1  0  0  0  0
 28 68  1  0  0  0  0
 29 30  1  0  0  0  0
 29 69  1  0  0  0  0
 29 70  1  0  0  0  0
 30 31  1  0  0  0  0
 30 71  1  0  0  0  0
 30 72  1  0  0  0  0
 31 32  1  0  0  0  0
 32 33  1  0  0  0  0
 32 73  1  0  0  0  0
 32 74  1  0  0  0  0
 33 34  1  0  0  0  0
 33 75  1  0  0  0  0
 33 76  1  0  0  0  0
 34 35  1  0  0  0  0
 35 36  1  0  0  0  0
 35 77  1  0  0  0  0
 35 78  1  0  0  0  0
 36 37  1  0  0  0  0
 36 79  1  0  0  0  0
 36 80  1  0  0  0  0
 37 38  1  0  0  0  0
 37 81  1  0  0  0  0
 38 39  2  0  0  0  0
 38 43  1  0  0  0  0
 39 40  1  0  0  0  0
 39 82  1  0  0  0  0
 40 41  2  0  0  0  0
 40 83  1  0  0  0  0
 41 42  1  0  0  0  0
 41 84  1  0  0  0  0
 42 43  2  0  0  0  0
 42 55  1  0  0  0  0
 43 44  1  0  0  0  0
 44 45  2  0  0  0  0
 44 46  1  0  0  0  0
 46 47  1  0  0  0  0
 46 55  1  0  0  0  0
 47 48  1  0  0  0  0
 47 53  1  0  0  0  0
 47 85  1  0  0  0  0
 48 49  1  0  0  0  0
 48 86  1  0  0  0  0
 48 87  1  0  0  0  0
 49 50  1  0  0  0  0
 49 88  1  0  0  0  0
 49 89  1  0  0  0  0
 50 51  2  0  0  0  0
 50 52  1  0  0  0  0
 52 53  1  0  0  0  0
 52 90  1  0  0  0  0
 53 54  2  0  0  0  0
 55 56  2  0  0  0  0
M  END
$$$$
protac3895RUN2
  chem.cr 07102519423D
protac3895RUN2
 90 96  0  0  0  0  0  0  0  0999 V2000
   -3.0759    3.2095    4.3265 O   0  0  0  0  0  0  0  0  0  0  0  0
   -3.4062    2.0337    4.2747 C   0  0  0  0  0  0  0  0  0  0  0  0
   -4.6451    1.4966    4.9530 C   0  0  0  0  0  0  0  0  0  0  0  0
   -5.6583    0.9220    4.0423 N   0  0  0  0  0  0  0  0  0  0  0  0
   -5.9577    1.5040    2.8078 C   0  0  0  0  0  0  0  0  0  0  0  0
   -7.2196    1.2200    2.3986 C   0  0  0  0  0  0  0  0  0  0  0  0
   -7.7440    1.6101    1.1797 C   0  0  0  0  0  0  0  0  0  0  0  0
   -8.9182    1.3718    0.5268 C   0  0  0  0  0  0  0  0  0  0  0  0
   -9.9842    0.5861    0.8837 C   0  0  0  0  0  0  0  0  0  0  0  0
  -11.1801    1.2086    1.3010 C   0  0  0  0  0  0  0  0  0  0  0  0
  -12.3142    0.4330    1.5977 C   0  0  0  0  0  0  0  0  0  0  0  0
  -12.2621   -0.9633    1.4650 C   0  0  0  0  0  0  0  0  0  0  0  0
  -13.6884   -1.9260    1.8193 Cl  0  0  0  0  0  0  0  0  0  0  0  0
  -11.0844   -1.5878    1.0183 C   0  0  0  0  0  0  0  0  0  0  0  0
   -9.9511   -0.8144    0.7122 C   0  0  0  0  0  0  0  0  0  0  0  0
   -8.5129   -1.6125    0.0773 Cl  0  0  0  0  0  0  0  0  0  0  0  0
   -8.9603    1.9657   -0.6692 C   0  0  0  0  0  0  0  0  0  0  0  0
   -9.7827    1.9754   -1.5755 O   0  0  0  0  0  0  0  0  0  0  0  0
   -7.7936    2.6716   -0.8473 N   0  0  0  0  0  0  0  0  0  0  0  0
   -7.0558    2.3932    0.2971 C   0  0  0  0  0  0  0  0  0  0  0  0
   -5.9391    2.8961    0.3023 O   0  0  0  0  0  0  0  0  0  0  0  0
   -7.7698    0.4715    3.4760 C   0  0  0  0  0  0  0  0  0  0  0  0
   -9.0617   -0.0110    3.7861 C   0  0  0  0  0  0  0  0  0  0  0  0
   -9.2963   -0.7103    4.9887 C   0  0  0  0  0  0  0  0  0  0  0  0
   -8.2702   -0.8959    5.9323 C   0  0  0  0  0  0  0  0  0  0  0  0
   -6.9974   -0.3668    5.6810 C   0  0  0  0  0  0  0  0  0  0  0  0
   -6.7851    0.2909    4.4625 C   0  0  0  0  0  0  0  0  0  0  0  0
   -2.7174    1.1661    3.4094 N   0  0  0  0  0  0  0  0  0  0  0  0
   -1.6618    1.6373    2.4968 C   0  0  0  0  0  0  0  0  0  0  0  0
   -0.6407    0.5369    2.1618 C   0  0  0  0  0  0  0  0  0  0  0  0
    0.3294    1.1209    1.2817 O   0  0  0  0  0  0  0  0  0  0  0  0
    1.5102    0.3380    1.0393 C   0  0  0  0  0  0  0  0  0  0  0  0
    2.7014    1.1103    1.6495 C   0  0  0  0  0  0  0  0  0  0  0  0
    3.9237    0.3773    1.4461 O   0  0  0  0  0  0  0  0  0  0  0  0
    4.4061    0.2983    0.0957 C   0  0  0  0  0  0  0  0  0  0  0  0
    5.8184   -0.3095    0.1683 C   0  0  0  0  0  0  0  0  0  0  0  0
    6.3734   -0.5374   -1.1763 N   0  0  0  0  0  0  0  0  0  0  0  0
    7.2173    0.3331   -1.8570 C   0  0  0  0  0  0  0  0  0  0  0  0
    7.3100    1.7131   -1.5563 C   0  0  0  0  0  0  0  0  0  0  0  0
    8.1925    2.5584   -2.2743 C   0  0  0  0  0  0  0  0  0  0  0  0
    8.9981    2.0409   -3.3108 C   0  0  0  0  0  0  0  0  0  0  0  0
    8.8890    0.6772   -3.6056 C   0  0  0  0  0  0  0  0  0  0  0  0
    8.0208   -0.1543   -2.8970 C   0  0  0  0  0  0  0  0  0  0  0  0
    8.1726   -1.4339   -3.3800 C   0  0  0  0  0  0  0  0  0  0  0  0
    7.7821   -2.4830   -2.8776 O   0  0  0  0  0  0  0  0  0  0  0  0
    9.1633   -1.4155   -4.3655 N   0  0  0  0  0  0  0  0  0  0  0  0
    9.6538   -2.5964   -5.1059 C   0  0  0  0  0  0  0  0  0  0  0  0
   11.1274   -2.8896   -4.7556 C   0  0  0  0  0  0  0  0  0  0  0  0
   11.6063   -4.1339   -5.5325 C   0  0  0  0  0  0  0  0  0  0  0  0
   11.3386   -4.0180   -7.0180 C   0  0  0  0  0  0  0  0  0  0  0  0
   11.9315   -4.6816   -7.8537 O   0  0  0  0  0  0  0  0  0  0  0  0
   10.2022   -3.3212   -7.4488 N   0  0  0  0  0  0  0  0  0  0  0  0
    9.4537   -2.4793   -6.6110 C   0  0  0  0  0  0  0  0  0  0  0  0
    8.4919   -1.9302   -7.1314 O   0  0  0  0  0  0  0  0  0  0  0  0
    9.5679   -0.0842   -4.5332 C   0  0  0  0  0  0  0  0  0  0  0  0
   10.5531    0.2340   -5.1892 O   0  0  0  0  0  0  0  0  0  0  0  0
   -4.3403    0.7384    5.6825 H   0  0  0  0  0  0  0  0  0  0  0  0
   -5.1164    2.3143    5.5082 H   0  0  0  0  0  0  0  0  0  0  0  0
   -5.1685    2.0661    2.3169 H   0  0  0  0  0  0  0  0  0  0  0  0
  -11.2234    2.2905    1.3960 H   0  0  0  0  0  0  0  0  0  0  0  0
  -13.2342    0.9155    1.9179 H   0  0  0  0  0  0  0  0  0  0  0  0
  -11.0542   -2.6653    0.8873 H   0  0  0  0  0  0  0  0  0  0  0  0
   -7.3792    2.8496   -1.7500 H   0  0  0  0  0  0  0  0  0  0  0  0
   -9.9165    0.1520    3.1688 H   0  0  0  0  0  0  0  0  0  0  0  0
  -10.2901   -1.0970    5.1950 H   0  0  0  0  0  0  0  0  0  0  0  0
   -8.4694   -1.4230    6.8614 H   0  0  0  0  0  0  0  0  0  0  0  0
   -6.2047   -0.4657    6.4152 H   0  0  0  0  0  0  0  0  0  0  0  0
   -3.0800    0.2279    3.2914 H   0  0  0  0  0  0  0  0  0  0  0  0
   -1.1263    2.4791    2.9582 H   0  0  0  0  0  0  0  0  0  0  0  0
   -2.1266    2.0091    1.5731 H   0  0  0  0  0  0  0  0  0  0  0  0
   -1.1423   -0.3085    1.6715 H   0  0  0  0  0  0  0  0  0  0  0  0
   -0.1684    0.1822    3.0862 H   0  0  0  0  0  0  0  0  0  0  0  0
    1.6527    0.2057   -0.0404 H   0  0  0  0  0  0  0  0  0  0  0  0
    1.4430   -0.6557    1.5043 H   0  0  0  0  0  0  0  0  0  0  0  0
    2.5255    1.2407    2.7258 H   0  0  0  0  0  0  0  0  0  0  0  0
    2.7658    2.1098    1.1973 H   0  0  0  0  0  0  0  0  0  0  0  0
    3.7584   -0.3397   -0.5185 H   0  0  0  0  0  0  0  0  0  0  0  0
    4.4539    1.2940   -0.3637 H   0  0  0  0  0  0  0  0  0  0  0  0
    6.4718    0.3506    0.7539 H   0  0  0  0  0  0  0  0  0  0  0  0
    5.7678   -1.2690    0.7003 H   0  0  0  0  0  0  0  0  0  0  0  0
    6.3667   -1.4884   -1.5329 H   0  0  0  0  0  0  0  0  0  0  0  0
    6.6986    2.1409   -0.7704 H   0  0  0  0  0  0  0  0  0  0  0  0
    8.2542    3.6137   -2.0229 H   0  0  0  0  0  0  0  0  0  0  0  0
    9.6871    2.6748   -3.8630 H   0  0  0  0  0  0  0  0  0  0  0  0
    9.0574   -3.4610   -4.7846 H   0  0  0  0  0  0  0  0  0  0  0  0
   11.2381   -3.0351   -3.6721 H   0  0  0  0  0  0  0  0  0  0  0  0
   11.7506   -2.0279   -5.0315 H   0  0  0  0  0  0  0  0  0  0  0  0
   12.6807   -4.2841   -5.3674 H   0  0  0  0  0  0  0  0  0  0  0  0
   11.1040   -5.0305   -5.1515 H   0  0  0  0  0  0  0  0  0  0  0  0
    9.9674   -3.3487   -8.4287 H   0  0  0  0  0  0  0  0  0  0  0  0
  1  2  2  0  0  0  0
  2  3  1  0  0  0  0
  2 28  1  0  0  0  0
  3  4  1  0  0  0  0
  3 57  1  0  0  0  0
  3 58  1  0  0  0  0
  4  5  1  0  0  0  0
  4 27  1  0  0  0  0
  5  6  2  0  0  0  0
  5 59  1  0  0  0  0
  6  7  1  0  0  0  0
  6 22  1  0  0  0  0
  7  8  2  0  0  0  0
  7 20  1  0  0  0  0
  8  9  1  0  0  0  0
  8 17  1  0  0  0  0
  9 10  2  0  0  0  0
  9 15  1  0  0  0  0
 10 11  1  0  0  0  0
 10 60  1  0  0  0  0
 11 12  2  0  0  0  0
 11 61  1  0  0  0  0
 12 13  1  0  0  0  0
 12 14  1  0  0  0  0
 14 15  2  0  0  0  0
 14 62  1  0  0  0  0
 15 16  1  0  0  0  0
 17 18  2  0  0  0  0
 17 19  1  0  0  0  0
 19 20  1  0  0  0  0
 19 63  1  0  0  0  0
 20 21  2  0  0  0  0
 22 23  2  0  0  0  0
 22 27  1  0  0  0  0
 23 24  1  0  0  0  0
 23 64  1  0  0  0  0
 24 25  2  0  0  0  0
 24 65  1  0  0  0  0
 25 26  1  0  0  0  0
 25 66  1  0  0  0  0
 26 27  2  0  0  0  0
 26 67  1  0  0  0  0
 28 29  1  0  0  0  0
 28 68  1  0  0  0  0
 29 30  1  0  0  0  0
 29 69  1  0  0  0  0
 29 70  1  0  0  0  0
 30 31  1  0  0  0  0
 30 71  1  0  0  0  0
 30 72  1  0  0  0  0
 31 32  1  0  0  0  0
 32 33  1  0  0  0  0
 32 73  1  0  0  0  0
 32 74  1  0  0  0  0
 33 34  1  0  0  0  0
 33 75  1  0  0  0  0
 33 76  1  0  0  0  0
 34 35  1  0  0  0  0
 35 36  1  0  0  0  0
 35 77  1  0  0  0  0
 35 78  1  0  0  0  0
 36 37  1  0  0  0  0
 36 79  1  0  0  0  0
 36 80  1  0  0  0  0
 37 38  1  0  0  0  0
 37 81  1  0  0  0  0
 38 39  2  0  0  0  0
 38 43  1  0  0  0  0
 39 40  1  0  0  0  0
 39 82  1  0  0  0  0
 40 41  2  0  0  0  0
 40 83  1  0  0  0  0
 41 42  1  0  0  0  0
 41 84  1  0  0  0  0
 42 43  2  0  0  0  0
 42 55  1  0  0  0  0
 43 44  1  0  0  0  0
 44 45  2  0  0  0  0
 44 46  1  0  0  0  0
 46 47  1  0  0  0  0
 46 55  1  0  0  0  0
 47 48  1  0  0  0  0
 47 53  1  0  0  0  0
 47 85  1  0  0  0  0
 48 49  1  0  0  0  0
 48 86  1  0  0  0  0
 48 87  1  0  0  0  0
 49 50  1  0  0  0  0
 49 88  1  0  0  0  0
 49 89  1  0  0  0  0
 50 51  2  0  0  0  0
 50 52  1  0  0  0  0
 52 53  1  0  0  0  0
 52 90  1  0  0  0  0
 53 54  2  0  0  0  0
 55 56  2  0  0  0  0
M  END
$$$$
protac3895RUN2
  chem.cr 07102519423D
protac3895RUN2
 90 96  0  0  0  0  0  0  0  0999 V2000
    0.2126    2.3513    1.9251 O   0  0  0  0  0  0  0  0  0  0  0  0
   -0.4638    1.4293    1.4894 C   0  0  0  0  0  0  0  0  0  0  0  0
   -1.5537    1.6101    0.4602 C   0  0  0  0  0  0  0  0  0  0  0  0
   -2.7728    0.8172    0.7241 N   0  0  0  0  0  0  0  0  0  0  0  0
   -3.6482    1.1566    1.7610 C   0  0  0  0  0  0  0  0  0  0  0  0
   -4.3697    0.0853    2.1642 C   0  0  0  0  0  0  0  0  0  0  0  0
   -5.4297    0.1176    3.0367 C   0  0  0  0  0  0  0  0  0  0  0  0
   -6.3970   -0.7883    3.3521 C   0  0  0  0  0  0  0  0  0  0  0  0
   -6.6545   -2.0227    2.7820 C   0  0  0  0  0  0  0  0  0  0  0  0
   -6.6895   -3.1639    3.6141 C   0  0  0  0  0  0  0  0  0  0  0  0
   -6.9852   -4.4304    3.0814 C   0  0  0  0  0  0  0  0  0  0  0  0
   -7.2678   -4.5650    1.7144 C   0  0  0  0  0  0  0  0  0  0  0  0
   -7.6474   -6.1467    1.0468 Cl  0  0  0  0  0  0  0  0  0  0  0  0
   -7.2737   -3.4338    0.8832 C   0  0  0  0  0  0  0  0  0  0  0  0
   -6.9805   -2.1636    1.4113 C   0  0  0  0  0  0  0  0  0  0  0  0
   -7.0728   -0.7681    0.3372 Cl  0  0  0  0  0  0  0  0  0  0  0  0
   -7.2522   -0.2916    4.2531 C   0  0  0  0  0  0  0  0  0  0  0  0
   -8.2817   -0.7178    4.7598 O   0  0  0  0  0  0  0  0  0  0  0  0
   -6.8470    0.9828    4.5919 N   0  0  0  0  0  0  0  0  0  0  0  0
   -5.7483    1.2154    3.7720 C   0  0  0  0  0  0  0  0  0  0  0  0
   -5.2579    2.3339    3.8686 O   0  0  0  0  0  0  0  0  0  0  0  0
   -3.8207   -1.0026    1.4565 C   0  0  0  0  0  0  0  0  0  0  0  0
   -3.8622   -2.3921    1.6883 C   0  0  0  0  0  0  0  0  0  0  0  0
   -3.1141   -3.2633    0.8675 C   0  0  0  0  0  0  0  0  0  0  0  0
   -2.2538   -2.7573   -0.1282 C   0  0  0  0  0  0  0  0  0  0  0  0
   -2.1000   -1.3693   -0.2775 C   0  0  0  0  0  0  0  0  0  0  0  0
   -2.8796   -0.5327    0.5331 C   0  0  0  0  0  0  0  0  0  0  0  0
   -0.0365    0.1144    1.7045 N   0  0  0  0  0  0  0  0  0  0  0  0
    1.3601   -0.2362    1.9867 C   0  0  0  0  0  0  0  0  0  0  0  0
    1.6736   -1.6624    1.4842 C   0  0  0  0  0  0  0  0  0  0  0  0
    1.3399   -1.7646    0.0867 O   0  0  0  0  0  0  0  0  0  0  0  0
    2.2451   -1.1078   -0.8141 C   0  0  0  0  0  0  0  0  0  0  0  0
    1.7668   -1.3489   -2.2561 C   0  0  0  0  0  0  0  0  0  0  0  0
    0.8162   -0.3286   -2.5950 O   0  0  0  0  0  0  0  0  0  0  0  0
    0.4742   -0.2632   -3.9887 C   0  0  0  0  0  0  0  0  0  0  0  0
    0.1852    1.2154   -4.3332 C   0  0  0  0  0  0  0  0  0  0  0  0
    1.2988    2.0765   -3.8949 N   0  0  0  0  0  0  0  0  0  0  0  0
    2.6076    1.8449   -4.2961 C   0  0  0  0  0  0  0  0  0  0  0  0
    2.9575    1.5656   -5.6373 C   0  0  0  0  0  0  0  0  0  0  0  0
    4.3004    1.2895   -5.9972 C   0  0  0  0  0  0  0  0  0  0  0  0
    5.3175    1.2770   -5.0188 C   0  0  0  0  0  0  0  0  0  0  0  0
    4.9552    1.5526   -3.6943 C   0  0  0  0  0  0  0  0  0  0  0  0
    3.6357    1.8414   -3.3465 C   0  0  0  0  0  0  0  0  0  0  0  0
    3.5890    2.0610   -1.9896 C   0  0  0  0  0  0  0  0  0  0  0  0
    2.6730    2.5309   -1.3243 O   0  0  0  0  0  0  0  0  0  0  0  0
    4.8830    1.9339   -1.4814 N   0  0  0  0  0  0  0  0  0  0  0  0
    5.2480    1.9839   -0.0532 C   0  0  0  0  0  0  0  0  0  0  0  0
    6.1221    3.2253    0.2259 C   0  0  0  0  0  0  0  0  0  0  0  0
    6.5976    3.2158    1.6933 C   0  0  0  0  0  0  0  0  0  0  0  0
    7.3012    1.9218    2.0341 C   0  0  0  0  0  0  0  0  0  0  0  0
    8.1541    1.8279    2.9031 O   0  0  0  0  0  0  0  0  0  0  0  0
    6.8311    0.7299    1.4706 N   0  0  0  0  0  0  0  0  0  0  0  0
    5.8987    0.6884    0.4229 C   0  0  0  0  0  0  0  0  0  0  0  0
    5.4695   -0.4230    0.1418 O   0  0  0  0  0  0  0  0  0  0  0  0
    5.7208    1.5925   -2.5512 C   0  0  0  0  0  0  0  0  0  0  0  0
    6.9395    1.5077   -2.4477 O   0  0  0  0  0  0  0  0  0  0  0  0
   -1.8227    2.6713    0.4194 H   0  0  0  0  0  0  0  0  0  0  0  0
   -1.1541    1.3362   -0.5218 H   0  0  0  0  0  0  0  0  0  0  0  0
   -3.7281    2.2027    2.0430 H   0  0  0  0  0  0  0  0  0  0  0  0
   -6.4838   -3.0638    4.6776 H   0  0  0  0  0  0  0  0  0  0  0  0
   -7.0033   -5.3031    3.7283 H   0  0  0  0  0  0  0  0  0  0  0  0
   -7.5187   -3.5362   -0.1701 H   0  0  0  0  0  0  0  0  0  0  0  0
   -7.4767    1.7096    4.8939 H   0  0  0  0  0  0  0  0  0  0  0  0
   -4.4007   -2.8136    2.5205 H   0  0  0  0  0  0  0  0  0  0  0  0
   -3.1723   -4.3363    1.0329 H   0  0  0  0  0  0  0  0  0  0  0  0
   -1.6632   -3.4378   -0.7365 H   0  0  0  0  0  0  0  0  0  0  0  0
   -1.3672   -0.9684   -0.9735 H   0  0  0  0  0  0  0  0  0  0  0  0
   -0.6506   -0.6278    1.3834 H   0  0  0  0  0  0  0  0  0  0  0  0
    1.5315   -0.1748    3.0695 H   0  0  0  0  0  0  0  0  0  0  0  0
    2.0255    0.4917    1.5030 H   0  0  0  0  0  0  0  0  0  0  0  0
    1.0756   -2.3803    2.0605 H   0  0  0  0  0  0  0  0  0  0  0  0
    2.7336   -1.8969    1.6522 H   0  0  0  0  0  0  0  0  0  0  0  0
    3.2539   -1.5236   -0.7012 H   0  0  0  0  0  0  0  0  0  0  0  0
    2.2943   -0.0292   -0.6231 H   0  0  0  0  0  0  0  0  0  0  0  0
    1.3288   -2.3506   -2.3503 H   0  0  0  0  0  0  0  0  0  0  0  0
    2.6415   -1.2869   -2.9171 H   0  0  0  0  0  0  0  0  0  0  0  0
    1.3067   -0.6119   -4.6158 H   0  0  0  0  0  0  0  0  0  0  0  0
   -0.4032   -0.8868   -4.2047 H   0  0  0  0  0  0  0  0  0  0  0  0
    0.0249    1.3204   -5.4138 H   0  0  0  0  0  0  0  0  0  0  0  0
   -0.7384    1.5236   -3.8267 H   0  0  0  0  0  0  0  0  0  0  0  0
    1.2370    2.4020   -2.9343 H   0  0  0  0  0  0  0  0  0  0  0  0
    2.1910    1.5710   -6.4060 H   0  0  0  0  0  0  0  0  0  0  0  0
    4.5498    1.0797   -7.0346 H   0  0  0  0  0  0  0  0  0  0  0  0
    6.3508    1.0589   -5.2785 H   0  0  0  0  0  0  0  0  0  0  0  0
    4.3203    2.0890    0.5252 H   0  0  0  0  0  0  0  0  0  0  0  0
    5.5557    4.1396   -0.0002 H   0  0  0  0  0  0  0  0  0  0  0  0
    6.9978    3.2154   -0.4382 H   0  0  0  0  0  0  0  0  0  0  0  0
    7.2811    4.0562    1.8708 H   0  0  0  0  0  0  0  0  0  0  0  0
    5.7459    3.3506    2.3730 H   0  0  0  0  0  0  0  0  0  0  0  0
    7.2276   -0.1408    1.7919 H   0  0  0  0  0  0  0  0  0  0  0  0
  1  2  2  0  0  0  0
  2  3  1  0  0  0  0
  2 28  1  0  0  0  0
  3  4  1  0  0  0  0
  3 57  1  0  0  0  0
  3 58  1  0  0  0  0
  4  5  1  0  0  0  0
  4 27  1  0  0  0  0
  5  6  2  0  0  0  0
  5 59  1  0  0  0  0
  6  7  1  0  0  0  0
  6 22  1  0  0  0  0
  7  8  2  0  0  0  0
  7 20  1  0  0  0  0
  8  9  1  0  0  0  0
  8 17  1  0  0  0  0
  9 10  2  0  0  0  0
  9 15  1  0  0  0  0
 10 11  1  0  0  0  0
 10 60  1  0  0  0  0
 11 12  2  0  0  0  0
 11 61  1  0  0  0  0
 12 13  1  0  0  0  0
 12 14  1  0  0  0  0
 14 15  2  0  0  0  0
 14 62  1  0  0  0  0
 15 16  1  0  0  0  0
 17 18  2  0  0  0  0
 17 19  1  0  0  0  0
 19 20  1  0  0  0  0
 19 63  1  0  0  0  0
 20 21  2  0  0  0  0
 22 23  2  0  0  0  0
 22 27  1  0  0  0  0
 23 24  1  0  0  0  0
 23 64  1  0  0  0  0
 24 25  2  0  0  0  0
 24 65  1  0  0  0  0
 25 26  1  0  0  0  0
 25 66  1  0  0  0  0
 26 27  2  0  0  0  0
 26 67  1  0  0  0  0
 28 29  1  0  0  0  0
 28 68  1  0  0  0  0
 29 30  1  0  0  0  0
 29 69  1  0  0  0  0
 29 70  1  0  0  0  0
 30 31  1  0  0  0  0
 30 71  1  0  0  0  0
 30 72  1  0  0  0  0
 31 32  1  0  0  0  0
 32 33  1  0  0  0  0
 32 73  1  0  0  0  0
 32 74  1  0  0  0  0
 33 34  1  0  0  0  0
 33 75  1  0  0  0  0
 33 76  1  0  0  0  0
 34 35  1  0  0  0  0
 35 36  1  0  0  0  0
 35 77  1  0  0  0  0
 35 78  1  0  0  0  0
 36 37  1  0  0  0  0
 36 79  1  0  0  0  0
 36 80  1  0  0  0  0
 37 38  1  0  0  0  0
 37 81  1  0  0  0  0
 38 39  2  0  0  0  0
 38 43  1  0  0  0  0
 39 40  1  0  0  0  0
 39 82  1  0  0  0  0
 40 41  2  0  0  0  0
 40 83  1  0  0  0  0
 41 42  1  0  0  0  0
 41 84  1  0  0  0  0
 42 43  2  0  0  0  0
 42 55  1  0  0  0  0
 43 44  1  0  0  0  0
 44 45  2  0  0  0  0
 44 46  1  0  0  0  0
 46 47  1  0  0  0  0
 46 55  1  0  0  0  0
 47 48  1  0  0  0  0
 47 53  1  0  0  0  0
 47 85  1  0  0  0  0
 48 49  1  0  0  0  0
 48 86  1  0  0  0  0
 48 87  1  0  0  0  0
 49 50  1  0  0  0  0
 49 88  1  0  0  0  0
 49 89  1  0  0  0  0
 50 51  2  0  0  0  0
 50 52  1  0  0  0  0
 52 53  1  0  0  0  0
 52 90  1  0  0  0  0
 53 54  2  0  0  0  0
 55 56  2  0  0  0  0
M  END
$$$$
protac3895RUN2
  chem.cr 07102519423D
protac3895RUN2
 90 96  0  0  0  0  0  0  0  0999 V2000
    0.8452    1.3784    5.8579 O   0  0  0  0  0  0  0  0  0  0  0  0
    1.0053    1.6501    4.6753 C   0  0  0  0  0  0  0  0  0  0  0  0
   -0.0247    2.3765    3.8489 C   0  0  0  0  0  0  0  0  0  0  0  0
   -0.1380    1.8957    2.4600 N   0  0  0  0  0  0  0  0  0  0  0  0
   -0.8648    0.7224    2.2025 C   0  0  0  0  0  0  0  0  0  0  0  0
   -1.6300    0.8583    1.0970 C   0  0  0  0  0  0  0  0  0  0  0  0
   -2.6132   -0.0047    0.6833 C   0  0  0  0  0  0  0  0  0  0  0  0
   -3.6305    0.1314   -0.2095 C   0  0  0  0  0  0  0  0  0  0  0  0
   -4.0528    1.2761   -0.8615 C   0  0  0  0  0  0  0  0  0  0  0  0
   -4.1775    1.2597   -2.2669 C   0  0  0  0  0  0  0  0  0  0  0  0
   -4.6524    2.3882   -2.9553 C   0  0  0  0  0  0  0  0  0  0  0  0
   -5.0276    3.5378   -2.2443 C   0  0  0  0  0  0  0  0  0  0  0  0
   -5.6335    4.9437   -3.1102 Cl  0  0  0  0  0  0  0  0  0  0  0  0
   -4.9433    3.5565   -0.8431 C   0  0  0  0  0  0  0  0  0  0  0  0
   -4.4735    2.4273   -0.1479 C   0  0  0  0  0  0  0  0  0  0  0  0
   -4.4645    2.4814    1.6185 Cl  0  0  0  0  0  0  0  0  0  0  0  0
   -4.3723   -0.9792   -0.2703 C   0  0  0  0  0  0  0  0  0  0  0  0
   -5.4054   -1.2704   -0.8604 O   0  0  0  0  0  0  0  0  0  0  0  0
   -3.8392   -1.9158    0.5918 N   0  0  0  0  0  0  0  0  0  0  0  0
   -2.7944   -1.2383    1.2154 C   0  0  0  0  0  0  0  0  0  0  0  0
   -2.2366   -1.8553    2.1139 O   0  0  0  0  0  0  0  0  0  0  0  0
   -1.2392    2.0846    0.5366 C   0  0  0  0  0  0  0  0  0  0  0  0
   -1.3745    2.6022   -0.7649 C   0  0  0  0  0  0  0  0  0  0  0  0
   -0.8107    3.8587   -1.0764 C   0  0  0  0  0  0  0  0  0  0  0  0
   -0.0269    4.5541   -0.1307 C   0  0  0  0  0  0  0  0  0  0  0  0
    0.2390    3.9682    1.1205 C   0  0  0  0  0  0  0  0  0  0  0  0
   -0.3695    2.7398    1.4108 C   0  0  0  0  0  0  0  0  0  0  0  0
    2.2720    1.4945    4.0996 N   0  0  0  0  0  0  0  0  0  0  0  0
    3.4074    0.8845    4.8064 C   0  0  0  0  0  0  0  0  0  0  0  0
    3.3247   -0.6517    4.7972 C   0  0  0  0  0  0  0  0  0  0  0  0
    3.1573   -1.0813    3.4330 O   0  0  0  0  0  0  0  0  0  0  0  0
    3.0907   -2.5021    3.2179 C   0  0  0  0  0  0  0  0  0  0  0  0
    1.7351   -3.0679    3.7266 C   0  0  0  0  0  0  0  0  0  0  0  0
    0.8004   -3.2092    2.6438 O   0  0  0  0  0  0  0  0  0  0  0  0
    1.0294   -4.3080    1.7452 C   0  0  0  0  0  0  0  0  0  0  0  0
   -0.2186   -4.4482    0.8549 C   0  0  0  0  0  0  0  0  0  0  0  0
   -0.4089   -3.2178    0.0774 N   0  0  0  0  0  0  0  0  0  0  0  0
   -0.6691   -3.1894   -1.2835 C   0  0  0  0  0  0  0  0  0  0  0  0
   -1.4398   -4.1796   -1.9343 C   0  0  0  0  0  0  0  0  0  0  0  0
   -1.6251   -4.1481   -3.3394 C   0  0  0  0  0  0  0  0  0  0  0  0
   -1.0266   -3.1358   -4.1192 C   0  0  0  0  0  0  0  0  0  0  0  0
   -0.2789   -2.1557   -3.4565 C   0  0  0  0  0  0  0  0  0  0  0  0
   -0.1336   -2.1684   -2.0714 C   0  0  0  0  0  0  0  0  0  0  0  0
    0.6449   -1.0939   -1.7187 C   0  0  0  0  0  0  0  0  0  0  0  0
    1.0182   -0.7514   -0.6014 O   0  0  0  0  0  0  0  0  0  0  0  0
    1.0154   -0.3997   -2.8750 N   0  0  0  0  0  0  0  0  0  0  0  0
    2.2164    0.4631   -2.9186 C   0  0  0  0  0  0  0  0  0  0  0  0
    2.0994    1.6352   -3.9136 C   0  0  0  0  0  0  0  0  0  0  0  0
    3.3276    2.5577   -3.7448 C   0  0  0  0  0  0  0  0  0  0  0  0
    4.6443    1.8011   -3.7470 C   0  0  0  0  0  0  0  0  0  0  0  0
    5.7255    2.3526   -3.8805 O   0  0  0  0  0  0  0  0  0  0  0  0
    4.6676    0.4426   -3.3956 N   0  0  0  0  0  0  0  0  0  0  0  0
    3.5032   -0.3055   -3.1766 C   0  0  0  0  0  0  0  0  0  0  0  0
    3.6516   -1.5068   -3.0003 O   0  0  0  0  0  0  0  0  0  0  0  0
    0.4389   -1.0919   -3.9545 C   0  0  0  0  0  0  0  0  0  0  0  0
    0.5844   -0.7631   -5.1263 O   0  0  0  0  0  0  0  0  0  0  0  0
   -1.0028    2.2744    4.3335 H   0  0  0  0  0  0  0  0  0  0  0  0
    0.2272    3.4421    3.8426 H   0  0  0  0  0  0  0  0  0  0  0  0
   -0.8453   -0.0684    2.9489 H   0  0  0  0  0  0  0  0  0  0  0  0
   -3.8958    0.3719   -2.8266 H   0  0  0  0  0  0  0  0  0  0  0  0
   -4.7299    2.3710   -4.0384 H   0  0  0  0  0  0  0  0  0  0  0  0
   -5.2469    4.4437   -0.2925 H   0  0  0  0  0  0  0  0  0  0  0  0
   -4.3969   -2.6127    1.0578 H   0  0  0  0  0  0  0  0  0  0  0  0
   -1.8519    2.0329   -1.5465 H   0  0  0  0  0  0  0  0  0  0  0  0
   -0.9569    4.2799   -2.0659 H   0  0  0  0  0  0  0  0  0  0  0  0
    0.4185    5.5105   -0.3900 H   0  0  0  0  0  0  0  0  0  0  0  0
    0.9166    4.4402    1.8248 H   0  0  0  0  0  0  0  0  0  0  0  0
    2.3251    1.5569    3.0898 H   0  0  0  0  0  0  0  0  0  0  0  0
    3.4203    1.2426    5.8443 H   0  0  0  0  0  0  0  0  0  0  0  0
    4.3420    1.2012    4.3256 H   0  0  0  0  0  0  0  0  0  0  0  0
    2.4738   -0.9561    5.4210 H   0  0  0  0  0  0  0  0  0  0  0  0
    4.2415   -1.0711    5.2308 H   0  0  0  0  0  0  0  0  0  0  0  0
    3.9150   -2.9999    3.7422 H   0  0  0  0  0  0  0  0  0  0  0  0
    3.2116   -2.7129    2.1495 H   0  0  0  0  0  0  0  0  0  0  0  0
    1.3038   -2.4038    4.4828 H   0  0  0  0  0  0  0  0  0  0  0  0
    1.9071   -4.0377    4.2083 H   0  0  0  0  0  0  0  0  0  0  0  0
    1.9105   -4.1289    1.1150 H   0  0  0  0  0  0  0  0  0  0  0  0
    1.1830   -5.2408    2.3015 H   0  0  0  0  0  0  0  0  0  0  0  0
   -0.0855   -5.3071    0.1870 H   0  0  0  0  0  0  0  0  0  0  0  0
   -1.0981   -4.6304    1.4856 H   0  0  0  0  0  0  0  0  0  0  0  0
    0.0196   -2.3785    0.4606 H   0  0  0  0  0  0  0  0  0  0  0  0
   -1.9028   -4.9715   -1.3539 H   0  0  0  0  0  0  0  0  0  0  0  0
   -2.2204   -4.9193   -3.8221 H   0  0  0  0  0  0  0  0  0  0  0  0
   -1.1371   -3.1148   -5.2012 H   0  0  0  0  0  0  0  0  0  0  0  0
    2.3188    0.8976   -1.9150 H   0  0  0  0  0  0  0  0  0  0  0  0
    1.1632    2.1847   -3.7479 H   0  0  0  0  0  0  0  0  0  0  0  0
    2.0803    1.2481   -4.9411 H   0  0  0  0  0  0  0  0  0  0  0  0
    3.3443    3.3050   -4.5466 H   0  0  0  0  0  0  0  0  0  0  0  0
    3.2478    3.1111   -2.8016 H   0  0  0  0  0  0  0  0  0  0  0  0
    5.5516   -0.0438   -3.3974 H   0  0  0  0  0  0  0  0  0  0  0  0
  1  2  2  0  0  0  0
  2  3  1  0  0  0  0
  2 28  1  0  0  0  0
  3  4  1  0  0  0  0
  3 57  1  0  0  0  0
  3 58  1  0  0  0  0
  4  5  1  0  0  0  0
  4 27  1  0  0  0  0
  5  6  2  0  0  0  0
  5 59  1  0  0  0  0
  6  7  1  0  0  0  0
  6 22  1  0  0  0  0
  7  8  2  0  0  0  0
  7 20  1  0  0  0  0
  8  9  1  0  0  0  0
  8 17  1  0  0  0  0
  9 10  2  0  0  0  0
  9 15  1  0  0  0  0
 10 11  1  0  0  0  0
 10 60  1  0  0  0  0
 11 12  2  0  0  0  0
 11 61  1  0  0  0  0
 12 13  1  0  0  0  0
 12 14  1  0  0  0  0
 14 15  2  0  0  0  0
 14 62  1  0  0  0  0
 15 16  1  0  0  0  0
 17 18  2  0  0  0  0
 17 19  1  0  0  0  0
 19 20  1  0  0  0  0
 19 63  1  0  0  0  0
 20 21  2  0  0  0  0
 22 23  2  0  0  0  0
 22 27  1  0  0  0  0
 23 24  1  0  0  0  0
 23 64  1  0  0  0  0
 24 25  2  0  0  0  0
 24 65  1  0  0  0  0
 25 26  1  0  0  0  0
 25 66  1  0  0  0  0
 26 27  2  0  0  0  0
 26 67  1  0  0  0  0
 28 29  1  0  0  0  0
 28 68  1  0  0  0  0
 29 30  1  0  0  0  0
 29 69  1  0  0  0  0
 29 70  1  0  0  0  0
 30 31  1  0  0  0  0
 30 71  1  0  0  0  0
 30 72  1  0  0  0  0
 31 32  1  0  0  0  0
 32 33  1  0  0  0  0
 32 73  1  0  0  0  0
 32 74  1  0  0  0  0
 33 34  1  0  0  0  0
 33 75  1  0  0  0  0
 33 76  1  0  0  0  0
 34 35  1  0  0  0  0
 35 36  1  0  0  0  0
 35 77  1  0  0  0  0
 35 78  1  0  0  0  0
 36 37  1  0  0  0  0
 36 79  1  0  0  0  0
 36 80  1  0  0  0  0
 37 38  1  0  0  0  0
 37 81  1  0  0  0  0
 38 39  2  0  0  0  0
 38 43  1  0  0  0  0
 39 40  1  0  0  0  0
 39 82  1  0  0  0  0
 40 41  2  0  0  0  0
 40 83  1  0  0  0  0
 41 42  1  0  0  0  0
 41 84  1  0  0  0  0
 42 43  2  0  0  0  0
 42 55  1  0  0  0  0
 43 44  1  0  0  0  0
 44 45  2  0  0  0  0
 44 46  1  0  0  0  0
 46 47  1  0  0  0  0
 46 55  1  0  0  0  0
 47 48  1  0  0  0  0
 47 53  1  0  0  0  0
 47 85  1  0  0  0  0
 48 49  1  0  0  0  0
 48 86  1  0  0  0  0
 48 87  1  0  0  0  0
 49 50  1  0  0  0  0
 49 88  1  0  0  0  0
 49 89  1  0  0  0  0
 50 51  2  0  0  0  0
 50 52  1  0  0  0  0
 52 53  1  0  0  0  0
 52 90  1  0  0  0  0
 53 54  2  0  0  0  0
 55 56  2  0  0  0  0
M  END
$$$$
protac3895RUN2
  chem.cr 07102519423D
protac3895RUN2
 90 96  0  0  0  0  0  0  0  0999 V2000
    2.3436    1.6889    0.7838 O   0  0  0  0  0  0  0  0  0  0  0  0
    1.4846    1.2210    1.5205 C   0  0  0  0  0  0  0  0  0  0  0  0
    0.2200    1.9596    1.8832 C   0  0  0  0  0  0  0  0  0  0  0  0
   -0.8859    1.7496    0.9286 N   0  0  0  0  0  0  0  0  0  0  0  0
   -2.1002    1.2167    1.3754 C   0  0  0  0  0  0  0  0  0  0  0  0
   -3.1565    1.7417    0.7108 C   0  0  0  0  0  0  0  0  0  0  0  0
   -4.4546    1.2954    0.7955 C   0  0  0  0  0  0  0  0  0  0  0  0
   -5.5780    1.5582    0.0703 C   0  0  0  0  0  0  0  0  0  0  0  0
   -5.7188    2.3283   -1.0685 C   0  0  0  0  0  0  0  0  0  0  0  0
   -5.0458    1.9559   -2.2494 C   0  0  0  0  0  0  0  0  0  0  0  0
   -5.2130    2.7020   -3.4306 C   0  0  0  0  0  0  0  0  0  0  0  0
   -6.0646    3.8168   -3.4425 C   0  0  0  0  0  0  0  0  0  0  0  0
   -6.2715    4.7505   -4.9180 Cl  0  0  0  0  0  0  0  0  0  0  0  0
   -6.7532    4.1891   -2.2787 C   0  0  0  0  0  0  0  0  0  0  0  0
   -6.5903    3.4491   -1.0953 C   0  0  0  0  0  0  0  0  0  0  0  0
   -7.4385    3.9930    0.3539 Cl  0  0  0  0  0  0  0  0  0  0  0  0
   -6.6137    0.8253    0.4966 C   0  0  0  0  0  0  0  0  0  0  0  0
   -7.7576    0.6702    0.0934 O   0  0  0  0  0  0  0  0  0  0  0  0
   -6.2076    0.0774    1.5832 N   0  0  0  0  0  0  0  0  0  0  0  0
   -4.8540    0.3615    1.6986 C   0  0  0  0  0  0  0  0  0  0  0  0
   -4.2691   -0.2657    2.5761 O   0  0  0  0  0  0  0  0  0  0  0  0
   -2.5963    2.7447   -0.1027 C   0  0  0  0  0  0  0  0  0  0  0  0
   -3.1489    3.8648   -0.7566 C   0  0  0  0  0  0  0  0  0  0  0  0
   -2.3116    4.7289   -1.4957 C   0  0  0  0  0  0  0  0  0  0  0  0
   -0.9139    4.5401   -1.5142 C   0  0  0  0  0  0  0  0  0  0  0  0
   -0.3390    3.5262   -0.7279 C   0  0  0  0  0  0  0  0  0  0  0  0
   -1.2015    2.6763   -0.0240 C   0  0  0  0  0  0  0  0  0  0  0  0
    1.8231    0.1411    2.3517 N   0  0  0  0  0  0  0  0  0  0  0  0
    3.1285   -0.5360    2.2785 C   0  0  0  0  0  0  0  0  0  0  0  0
    3.3874   -1.4407    3.4952 C   0  0  0  0  0  0  0  0  0  0  0  0
    4.5979   -2.1577    3.2173 O   0  0  0  0  0  0  0  0  0  0  0  0
    5.0910   -3.0465    4.2395 C   0  0  0  0  0  0  0  0  0  0  0  0
    4.0489   -4.1508    4.5862 C   0  0  0  0  0  0  0  0  0  0  0  0
    3.4251   -4.6608    3.3940 O   0  0  0  0  0  0  0  0  0  0  0  0
    4.2641   -5.3403    2.4505 C   0  0  0  0  0  0  0  0  0  0  0  0
    3.4197   -5.5838    1.1865 C   0  0  0  0  0  0  0  0  0  0  0  0
    3.1223   -4.3121    0.5019 N   0  0  0  0  0  0  0  0  0  0  0  0
    1.9364   -3.5883    0.5804 C   0  0  0  0  0  0  0  0  0  0  0  0
    0.9077   -3.8646    1.5132 C   0  0  0  0  0  0  0  0  0  0  0  0
   -0.2887   -3.1045    1.5318 C   0  0  0  0  0  0  0  0  0  0  0  0
   -0.4842   -2.0523    0.6150 C   0  0  0  0  0  0  0  0  0  0  0  0
    0.5442   -1.7782   -0.2917 C   0  0  0  0  0  0  0  0  0  0  0  0
    1.7237   -2.5231   -0.3052 C   0  0  0  0  0  0  0  0  0  0  0  0
    2.5343   -2.0156   -1.2937 C   0  0  0  0  0  0  0  0  0  0  0  0
    3.7443   -2.1746   -1.4274 O   0  0  0  0  0  0  0  0  0  0  0  0
    1.8734   -0.9397   -1.8883 N   0  0  0  0  0  0  0  0  0  0  0  0
    2.3484   -0.1848   -3.0624 C   0  0  0  0  0  0  0  0  0  0  0  0
    2.6337    1.2779   -2.6644 C   0  0  0  0  0  0  0  0  0  0  0  0
    3.0181    2.0921   -3.9183 C   0  0  0  0  0  0  0  0  0  0  0  0
    1.9496    1.9933   -4.9819 C   0  0  0  0  0  0  0  0  0  0  0  0
    1.7604    2.8549   -5.8260 O   0  0  0  0  0  0  0  0  0  0  0  0
    1.2802    0.7762   -5.1489 N   0  0  0  0  0  0  0  0  0  0  0  0
    1.3933   -0.2955   -4.2487 C   0  0  0  0  0  0  0  0  0  0  0  0
    0.8919   -1.3513   -4.6150 O   0  0  0  0  0  0  0  0  0  0  0  0
    0.6267   -0.8161   -1.2681 C   0  0  0  0  0  0  0  0  0  0  0  0
   -0.2466   -0.0489   -1.6567 O   0  0  0  0  0  0  0  0  0  0  0  0
   -0.1059    1.6854    2.8925 H   0  0  0  0  0  0  0  0  0  0  0  0
    0.4496    3.0318    1.9035 H   0  0  0  0  0  0  0  0  0  0  0  0
   -2.0603    0.4039    2.0916 H   0  0  0  0  0  0  0  0  0  0  0  0
   -4.3835    1.0940   -2.2467 H   0  0  0  0  0  0  0  0  0  0  0  0
   -4.6811    2.4156   -4.3350 H   0  0  0  0  0  0  0  0  0  0  0  0
   -7.4152    5.0506   -2.2902 H   0  0  0  0  0  0  0  0  0  0  0  0
   -6.6121   -0.8117    1.8303 H   0  0  0  0  0  0  0  0  0  0  0  0
   -4.1906    4.1203   -0.6697 H   0  0  0  0  0  0  0  0  0  0  0  0
   -2.7497    5.5622   -2.0386 H   0  0  0  0  0  0  0  0  0  0  0  0
   -0.2798    5.2115   -2.0866 H   0  0  0  0  0  0  0  0  0  0  0  0
    0.7375    3.4110   -0.6571 H   0  0  0  0  0  0  0  0  0  0  0  0
    1.1040   -0.2541    2.9419 H   0  0  0  0  0  0  0  0  0  0  0  0
    3.9273    0.2138    2.2085 H   0  0  0  0  0  0  0  0  0  0  0  0
    3.1683   -1.1388    1.3630 H   0  0  0  0  0  0  0  0  0  0  0  0
    2.5456   -2.1339    3.6203 H   0  0  0  0  0  0  0  0  0  0  0  0
    3.4903   -0.8321    4.4029 H   0  0  0  0  0  0  0  0  0  0  0  0
    5.3347   -2.4806    5.1490 H   0  0  0  0  0  0  0  0  0  0  0  0
    6.0187   -3.5225    3.8969 H   0  0  0  0  0  0  0  0  0  0  0  0
    3.2835   -3.7252    5.2476 H   0  0  0  0  0  0  0  0  0  0  0  0
    4.5415   -4.9621    5.1380 H   0  0  0  0  0  0  0  0  0  0  0  0
    5.1404   -4.7391    2.1776 H   0  0  0  0  0  0  0  0  0  0  0  0
    4.6078   -6.2988    2.8597 H   0  0  0  0  0  0  0  0  0  0  0  0
    3.9894   -6.2328    0.5077 H   0  0  0  0  0  0  0  0  0  0  0  0
    2.4980   -6.1187    1.4513 H   0  0  0  0  0  0  0  0  0  0  0  0
    3.8188   -3.9419   -0.1393 H   0  0  0  0  0  0  0  0  0  0  0  0
    1.0289   -4.6652    2.2355 H   0  0  0  0  0  0  0  0  0  0  0  0
   -1.0671   -3.3414    2.2526 H   0  0  0  0  0  0  0  0  0  0  0  0
   -1.4017   -1.4703    0.5962 H   0  0  0  0  0  0  0  0  0  0  0  0
    3.2933   -0.6357   -3.3903 H   0  0  0  0  0  0  0  0  0  0  0  0
    3.4294    1.3106   -1.9080 H   0  0  0  0  0  0  0  0  0  0  0  0
    1.7360    1.7120   -2.2045 H   0  0  0  0  0  0  0  0  0  0  0  0
    3.1710    3.1444   -3.6508 H   0  0  0  0  0  0  0  0  0  0  0  0
    3.9664    1.7272   -4.3334 H   0  0  0  0  0  0  0  0  0  0  0  0
    0.6525    0.6758   -5.9314 H   0  0  0  0  0  0  0  0  0  0  0  0
  1  2  2  0  0  0  0
  2  3  1  0  0  0  0
  2 28  1  0  0  0  0
  3  4  1  0  0  0  0
  3 57  1  0  0  0  0
  3 58  1  0  0  0  0
  4  5  1  0  0  0  0
  4 27  1  0  0  0  0
  5  6  2  0  0  0  0
  5 59  1  0  0  0  0
  6  7  1  0  0  0  0
  6 22  1  0  0  0  0
  7  8  2  0  0  0  0
  7 20  1  0  0  0  0
  8  9  1  0  0  0  0
  8 17  1  0  0  0  0
  9 10  2  0  0  0  0
  9 15  1  0  0  0  0
 10 11  1  0  0  0  0
 10 60  1  0  0  0  0
 11 12  2  0  0  0  0
 11 61  1  0  0  0  0
 12 13  1  0  0  0  0
 12 14  1  0  0  0  0
 14 15  2  0  0  0  0
 14 62  1  0  0  0  0
 15 16  1  0  0  0  0
 17 18  2  0  0  0  0
 17 19  1  0  0  0  0
 19 20  1  0  0  0  0
 19 63  1  0  0  0  0
 20 21  2  0  0  0  0
 22 23  2  0  0  0  0
 22 27  1  0  0  0  0
 23 24  1  0  0  0  0
 23 64  1  0  0  0  0
 24 25  2  0  0  0  0
 24 65  1  0  0  0  0
 25 26  1  0  0  0  0
 25 66  1  0  0  0  0
 26 27  2  0  0  0  0
 26 67  1  0  0  0  0
 28 29  1  0  0  0  0
 28 68  1  0  0  0  0
 29 30  1  0  0  0  0
 29 69  1  0  0  0  0
 29 70  1  0  0  0  0
 30 31  1  0  0  0  0
 30 71  1  0  0  0  0
 30 72  1  0  0  0  0
 31 32  1  0  0  0  0
 32 33  1  0  0  0  0
 32 73  1  0  0  0  0
 32 74  1  0  0  0  0
 33 34  1  0  0  0  0
 33 75  1  0  0  0  0
 33 76  1  0  0  0  0
 34 35  1  0  0  0  0
 35 36  1  0  0  0  0
 35 77  1  0  0  0  0
 35 78  1  0  0  0  0
 36 37  1  0  0  0  0
 36 79  1  0  0  0  0
 36 80  1  0  0  0  0
 37 38  1  0  0  0  0
 37 81  1  0  0  0  0
 38 39  2  0  0  0  0
 38 43  1  0  0  0  0
 39 40  1  0  0  0  0
 39 82  1  0  0  0  0
 40 41  2  0  0  0  0
 40 83  1  0  0  0  0
 41 42  1  0  0  0  0
 41 84  1  0  0  0  0
 42 43  2  0  0  0  0
 42 55  1  0  0  0  0
 43 44  1  0  0  0  0
 44 45  2  0  0  0  0
 44 46  1  0  0  0  0
 46 47  1  0  0  0  0
 46 55  1  0  0  0  0
 47 48  1  0  0  0  0
 47 53  1  0  0  0  0
 47 85  1  0  0  0  0
 48 49  1  0  0  0  0
 48 86  1  0  0  0  0
 48 87  1  0  0  0  0
 49 50  1  0  0  0  0
 49 88  1  0  0  0  0
 49 89  1  0  0  0  0
 50 51  2  0  0  0  0
 50 52  1  0  0  0  0
 52 53  1  0  0  0  0
 52 90  1  0  0  0  0
 53 54  2  0  0  0  0
 55 56  2  0  0  0  0
M  END
$$$$
protac3895RUN2
  chem.cr 07102519423D
protac3895RUN2
 90 96  0  0  0  0  0  0  0  0999 V2000
    1.3903    2.6733    0.8439 O   0  0  0  0  0  0  0  0  0  0  0  0
    0.4317    1.9542    1.0926 C   0  0  0  0  0  0  0  0  0  0  0  0
   -0.6999    2.3755    1.9930 C   0  0  0  0  0  0  0  0  0  0  0  0
   -1.9912    2.4735    1.2932 N   0  0  0  0  0  0  0  0  0  0  0  0
   -3.1448    1.8583    1.7992 C   0  0  0  0  0  0  0  0  0  0  0  0
   -4.2543    2.4982    1.3710 C   0  0  0  0  0  0  0  0  0  0  0  0
   -5.5446    2.0578    1.5160 C   0  0  0  0  0  0  0  0  0  0  0  0
   -6.6946    2.4208    0.8920 C   0  0  0  0  0  0  0  0  0  0  0  0
   -6.8346    3.2634   -0.1984 C   0  0  0  0  0  0  0  0  0  0  0  0
   -6.1028    2.9895   -1.3746 C   0  0  0  0  0  0  0  0  0  0  0  0
   -6.2275    3.8149   -2.5048 C   0  0  0  0  0  0  0  0  0  0  0  0
   -7.0987    4.9144   -2.4748 C   0  0  0  0  0  0  0  0  0  0  0  0
   -7.2518    5.9574   -3.8814 Cl  0  0  0  0  0  0  0  0  0  0  0  0
   -7.8468    5.1876   -1.3199 C   0  0  0  0  0  0  0  0  0  0  0  0
   -7.7254    4.3657   -0.1864 C   0  0  0  0  0  0  0  0  0  0  0  0
   -8.6410    4.7960    1.2596 Cl  0  0  0  0  0  0  0  0  0  0  0  0
   -7.7228    1.6700    1.3099 C   0  0  0  0  0  0  0  0  0  0  0  0
   -8.8876    1.5611    0.9504 O   0  0  0  0  0  0  0  0  0  0  0  0
   -7.2710    0.8091    2.2932 N   0  0  0  0  0  0  0  0  0  0  0  0
   -5.8994    1.0403    2.3387 C   0  0  0  0  0  0  0  0  0  0  0  0
   -5.2665    0.3162    3.0997 O   0  0  0  0  0  0  0  0  0  0  0  0
   -3.7852    3.6460    0.7103 C   0  0  0  0  0  0  0  0  0  0  0  0
   -4.4101    4.8744    0.4150 C   0  0  0  0  0  0  0  0  0  0  0  0
   -3.6605    5.9115   -0.1792 C   0  0  0  0  0  0  0  0  0  0  0  0
   -2.2718    5.7689   -0.3915 C   0  0  0  0  0  0  0  0  0  0  0  0
   -1.6136    4.6067    0.0489 C   0  0  0  0  0  0  0  0  0  0  0  0
   -2.3930    3.5875    0.6105 C   0  0  0  0  0  0  0  0  0  0  0  0
    0.4744    0.5995    0.7311 N   0  0  0  0  0  0  0  0  0  0  0  0
    1.7084   -0.0726    0.2932 C   0  0  0  0  0  0  0  0  0  0  0  0
    2.7368   -0.1647    1.4300 C   0  0  0  0  0  0  0  0  0  0  0  0
    3.9251   -0.7577    0.8888 O   0  0  0  0  0  0  0  0  0  0  0  0
    5.1365   -0.5473    1.6399 C   0  0  0  0  0  0  0  0  0  0  0  0
    5.0357   -1.1858    3.0544 C   0  0  0  0  0  0  0  0  0  0  0  0
    5.0194   -2.6189    2.9487 O   0  0  0  0  0  0  0  0  0  0  0  0
    6.2878   -3.2445    2.7048 C   0  0  0  0  0  0  0  0  0  0  0  0
    6.0273   -4.7387    2.4413 C   0  0  0  0  0  0  0  0  0  0  0  0
    5.3174   -4.9109    1.1616 N   0  0  0  0  0  0  0  0  0  0  0  0
    3.9356   -4.9454    1.0117 C   0  0  0  0  0  0  0  0  0  0  0  0
    3.0483   -5.3717    2.0290 C   0  0  0  0  0  0  0  0  0  0  0  0
    1.6474   -5.3678    1.8252 C   0  0  0  0  0  0  0  0  0  0  0  0
    1.1008   -4.9325    0.6012 C   0  0  0  0  0  0  0  0  0  0  0  0
    1.9871   -4.5214   -0.4028 C   0  0  0  0  0  0  0  0  0  0  0  0
    3.3667   -4.5367   -0.2025 C   0  0  0  0  0  0  0  0  0  0  0  0
    3.9609   -4.0394   -1.3373 C   0  0  0  0  0  0  0  0  0  0  0  0
    5.1280   -3.6983   -1.4979 O   0  0  0  0  0  0  0  0  0  0  0  0
    2.9534   -3.6720   -2.2348 N   0  0  0  0  0  0  0  0  0  0  0  0
    3.1570   -2.7779   -3.3913 C   0  0  0  0  0  0  0  0  0  0  0  0
    2.9809   -1.3113   -2.9411 C   0  0  0  0  0  0  0  0  0  0  0  0
    3.0796   -0.3683   -4.1561 C   0  0  0  0  0  0  0  0  0  0  0  0
    2.0985   -0.7623   -5.2349 C   0  0  0  0  0  0  0  0  0  0  0  0
    1.6181    0.0317   -6.0296 O   0  0  0  0  0  0  0  0  0  0  0  0
    1.8498   -2.1210   -5.4563 N   0  0  0  0  0  0  0  0  0  0  0  0
    2.2740   -3.1356   -4.5846 C   0  0  0  0  0  0  0  0  0  0  0  0
    2.0998   -4.2806   -4.9792 O   0  0  0  0  0  0  0  0  0  0  0  0
    1.7218   -4.0070   -1.6501 C   0  0  0  0  0  0  0  0  0  0  0  0
    0.6779   -3.4665   -2.0024 O   0  0  0  0  0  0  0  0  0  0  0  0
   -0.7792    1.6784    2.8336 H   0  0  0  0  0  0  0  0  0  0  0  0
   -0.4620    3.3634    2.4074 H   0  0  0  0  0  0  0  0  0  0  0  0
   -3.0446    0.9206    2.3377 H   0  0  0  0  0  0  0  0  0  0  0  0
   -5.4232    2.1418   -1.4024 H   0  0  0  0  0  0  0  0  0  0  0  0
   -5.6496    3.6032   -3.3994 H   0  0  0  0  0  0  0  0  0  0  0  0
   -8.5193    6.0394   -1.2997 H   0  0  0  0  0  0  0  0  0  0  0  0
   -7.6947   -0.0836    2.4935 H   0  0  0  0  0  0  0  0  0  0  0  0
   -5.4387    5.0642    0.6828 H   0  0  0  0  0  0  0  0  0  0  0  0
   -4.1512    6.8460   -0.4426 H   0  0  0  0  0  0  0  0  0  0  0  0
   -1.7015    6.5816   -0.8340 H   0  0  0  0  0  0  0  0  0  0  0  0
   -0.5333    4.5180   -0.0208 H   0  0  0  0  0  0  0  0  0  0  0  0
   -0.3933    0.0779    0.7418 H   0  0  0  0  0  0  0  0  0  0  0  0
    2.1472    0.4957   -0.5390 H   0  0  0  0  0  0  0  0  0  0  0  0
    1.4745   -1.0844   -0.0646 H   0  0  0  0  0  0  0  0  0  0  0  0
    2.3324   -0.7743    2.2497 H   0  0  0  0  0  0  0  0  0  0  0  0
    2.9463    0.8438    1.8090 H   0  0  0  0  0  0  0  0  0  0  0  0
    5.3250    0.5282    1.7476 H   0  0  0  0  0  0  0  0  0  0  0  0
    5.9878   -0.9671    1.0920 H   0  0  0  0  0  0  0  0  0  0  0  0
    4.1292   -0.8354    3.5602 H   0  0  0  0  0  0  0  0  0  0  0  0
    5.8886   -0.8579    3.6620 H   0  0  0  0  0  0  0  0  0  0  0  0
    6.7932   -2.8054    1.8355 H   0  0  0  0  0  0  0  0  0  0  0  0
    6.9406   -3.1332    3.5804 H   0  0  0  0  0  0  0  0  0  0  0  0
    6.9900   -5.2637    2.3945 H   0  0  0  0  0  0  0  0  0  0  0  0
    5.4652   -5.1623    3.2801 H   0  0  0  0  0  0  0  0  0  0  0  0
    5.8109   -4.6122    0.3252 H   0  0  0  0  0  0  0  0  0  0  0  0
    3.4310   -5.7085    2.9855 H   0  0  0  0  0  0  0  0  0  0  0  0
    0.9854   -5.6985    2.6215 H   0  0  0  0  0  0  0  0  0  0  0  0
    0.0264   -4.9118    0.4348 H   0  0  0  0  0  0  0  0  0  0  0  0
    4.1923   -2.9102   -3.7312 H   0  0  0  0  0  0  0  0  0  0  0  0
    3.7334   -1.0578   -2.1808 H   0  0  0  0  0  0  0  0  0  0  0  0
    1.9935   -1.1940   -2.4756 H   0  0  0  0  0  0  0  0  0  0  0  0
    2.8825    0.6653   -3.8446 H   0  0  0  0  0  0  0  0  0  0  0  0
    4.0941   -0.3889   -4.5740 H   0  0  0  0  0  0  0  0  0  0  0  0
    1.2880   -2.3818   -6.2531 H   0  0  0  0  0  0  0  0  0  0  0  0
  1  2  2  0  0  0  0
  2  3  1  0  0  0  0
  2 28  1  0  0  0  0
  3  4  1  0  0  0  0
  3 57  1  0  0  0  0
  3 58  1  0  0  0  0
  4  5  1  0  0  0  0
  4 27  1  0  0  0  0
  5  6  2  0  0  0  0
  5 59  1  0  0  0  0
  6  7  1  0  0  0  0
  6 22  1  0  0  0  0
  7  8  2  0  0  0  0
  7 20  1  0  0  0  0
  8  9  1  0  0  0  0
  8 17  1  0  0  0  0
  9 10  2  0  0  0  0
  9 15  1  0  0  0  0
 10 11  1  0  0  0  0
 10 60  1  0  0  0  0
 11 12  2  0  0  0  0
 11 61  1  0  0  0  0
 12 13  1  0  0  0  0
 12 14  1  0  0  0  0
 14 15  2  0  0  0  0
 14 62  1  0  0  0  0
 15 16  1  0  0  0  0
 17 18  2  0  0  0  0
 17 19  1  0  0  0  0
 19 20  1  0  0  0  0
 19 63  1  0  0  0  0
 20 21  2  0  0  0  0
 22 23  2  0  0  0  0
 22 27  1  0  0  0  0
 23 24  1  0  0  0  0
 23 64  1  0  0  0  0
 24 25  2  0  0  0  0
 24 65  1  0  0  0  0
 25 26  1  0  0  0  0
 25 66  1  0  0  0  0
 26 27  2  0  0  0  0
 26 67  1  0  0  0  0
 28 29  1  0  0  0  0
 28 68  1  0  0  0  0
 29 30  1  0  0  0  0
 29 69  1  0  0  0  0
 29 70  1  0  0  0  0
 30 31  1  0  0  0  0
 30 71  1  0  0  0  0
 30 72  1  0  0  0  0
 31 32  1  0  0  0  0
 32 33  1  0  0  0  0
 32 73  1  0  0  0  0
 32 74  1  0  0  0  0
 33 34  1  0  0  0  0
 33 75  1  0  0  0  0
 33 76  1  0  0  0  0
 34 35  1  0  0  0  0
 35 36  1  0  0  0  0
 35 77  1  0  0  0  0
 35 78  1  0  0  0  0
 36 37  1  0  0  0  0
 36 79  1  0  0  0  0
 36 80  1  0  0  0  0
 37 38  1  0  0  0  0
 37 81  1  0  0  0  0
 38 39  2  0  0  0  0
 38 43  1  0  0  0  0
 39 40  1  0  0  0  0
 39 82  1  0  0  0  0
 40 41  2  0  0  0  0
 40 83  1  0  0  0  0
 41 42  1  0  0  0  0
 41 84  1  0  0  0  0
 42 43  2  0  0  0  0
 42 55  1  0  0  0  0
 43 44  1  0  0  0  0
 44 45  2  0  0  0  0
 44 46  1  0  0  0  0
 46 47  1  0  0  0  0
 46 55  1  0  0  0  0
 47 48  1  0  0  0  0
 47 53  1  0  0  0  0
 47 85  1  0  0  0  0
 48 49  1  0  0  0  0
 48 86  1  0  0  0  0
 48 87  1  0  0  0  0
 49 50  1  0  0  0  0
 49 88  1  0  0  0  0
 49 89  1  0  0  0  0
 50 51  2  0  0  0  0
 50 52  1  0  0  0  0
 52 53  1  0  0  0  0
 52 90  1  0  0  0  0
 53 54  2  0  0  0  0
 55 56  2  0  0  0  0
M  END
$$$$
protac3895RUN2
  chem.cr 07102519423D
protac3895RUN2
 90 96  0  0  0  0  0  0  0  0999 V2000
   -0.7545    0.9155    3.7175 O   0  0  0  0  0  0  0  0  0  0  0  0
   -1.5935    0.0284    3.8019 C   0  0  0  0  0  0  0  0  0  0  0  0
   -2.7252    0.0681    4.8071 C   0  0  0  0  0  0  0  0  0  0  0  0
   -3.8201    0.9945    4.4512 N   0  0  0  0  0  0  0  0  0  0  0  0
   -5.1509    0.5514    4.3906 C   0  0  0  0  0  0  0  0  0  0  0  0
   -6.0100    1.5712    4.6148 C   0  0  0  0  0  0  0  0  0  0  0  0
   -7.3691    1.5394    4.4594 C   0  0  0  0  0  0  0  0  0  0  0  0
   -8.2890    2.5342    4.3411 C   0  0  0  0  0  0  0  0  0  0  0  0
   -8.0506    3.8910    4.1726 C   0  0  0  0  0  0  0  0  0  0  0  0
   -7.1941    4.3086    3.1317 C   0  0  0  0  0  0  0  0  0  0  0  0
   -6.9352    5.6728    2.9150 C   0  0  0  0  0  0  0  0  0  0  0  0
   -7.5469    6.6386    3.7262 C   0  0  0  0  0  0  0  0  0  0  0  0
   -7.2099    8.3454    3.4644 Cl  0  0  0  0  0  0  0  0  0  0  0  0
   -8.4233    6.2425    4.7477 C   0  0  0  0  0  0  0  0  0  0  0  0
   -8.6800    4.8779    4.9748 C   0  0  0  0  0  0  0  0  0  0  0  0
   -9.7381    4.4436    6.3178 Cl  0  0  0  0  0  0  0  0  0  0  0  0
   -9.5137    2.0262    4.1528 C   0  0  0  0  0  0  0  0  0  0  0  0
  -10.5999    2.5239    3.8857 O   0  0  0  0  0  0  0  0  0  0  0  0
   -9.4341    0.6467    4.1958 N   0  0  0  0  0  0  0  0  0  0  0  0
   -8.0730    0.3903    4.3203 C   0  0  0  0  0  0  0  0  0  0  0  0
   -7.7497   -0.7920    4.3048 O   0  0  0  0  0  0  0  0  0  0  0  0
   -5.2036    2.6544    4.9882 C   0  0  0  0  0  0  0  0  0  0  0  0
   -5.5063    3.8227    5.7134 C   0  0  0  0  0  0  0  0  0  0  0  0
   -4.4713    4.7151    6.0593 C   0  0  0  0  0  0  0  0  0  0  0  0
   -3.1269    4.4073    5.7622 C   0  0  0  0  0  0  0  0  0  0  0  0
   -2.8045    3.1700    5.1758 C   0  0  0  0  0  0  0  0  0  0  0  0
   -3.8591    2.3123    4.8301 C   0  0  0  0  0  0  0  0  0  0  0  0
   -1.2165   -1.2538    3.3714 N   0  0  0  0  0  0  0  0  0  0  0  0
    0.1732   -1.7390    3.4426 C   0  0  0  0  0  0  0  0  0  0  0  0
    0.8376   -1.8224    2.0551 C   0  0  0  0  0  0  0  0  0  0  0  0
    0.1481   -2.8292    1.2987 O   0  0  0  0  0  0  0  0  0  0  0  0
    0.5740   -3.0011   -0.0664 C   0  0  0  0  0  0  0  0  0  0  0  0
    1.9236   -3.7498   -0.1072 C   0  0  0  0  0  0  0  0  0  0  0  0
    2.1732   -4.0920   -1.4835 O   0  0  0  0  0  0  0  0  0  0  0  0
    3.1788   -5.0918   -1.7275 C   0  0  0  0  0  0  0  0  0  0  0  0
    4.5947   -4.4949   -1.5655 C   0  0  0  0  0  0  0  0  0  0  0  0
    4.9606   -3.7007   -2.7564 N   0  0  0  0  0  0  0  0  0  0  0  0
    6.1673   -3.7401   -3.4589 C   0  0  0  0  0  0  0  0  0  0  0  0
    7.2407   -4.6093   -3.1283 C   0  0  0  0  0  0  0  0  0  0  0  0
    8.4451   -4.6102   -3.8741 C   0  0  0  0  0  0  0  0  0  0  0  0
    8.6137   -3.7379   -4.9672 C   0  0  0  0  0  0  0  0  0  0  0  0
    7.5568   -2.8795   -5.2872 C   0  0  0  0  0  0  0  0  0  0  0  0
    6.3649   -2.8823   -4.5568 C   0  0  0  0  0  0  0  0  0  0  0  0
    5.5357   -1.9336   -5.1175 C   0  0  0  0  0  0  0  0  0  0  0  0
    4.3473   -1.7337   -4.8951 O   0  0  0  0  0  0  0  0  0  0  0  0
    6.1898   -1.3589   -6.2157 N   0  0  0  0  0  0  0  0  0  0  0  0
    5.7367   -0.1590   -6.9538 C   0  0  0  0  0  0  0  0  0  0  0  0
    5.4275   -0.5214   -8.4231 C   0  0  0  0  0  0  0  0  0  0  0  0
    5.0313    0.7453   -9.2127 C   0  0  0  0  0  0  0  0  0  0  0  0
    6.0714    1.8349   -9.0803 C   0  0  0  0  0  0  0  0  0  0  0  0
    6.2383    2.7091   -9.9174 O   0  0  0  0  0  0  0  0  0  0  0  0
    6.7547    1.9716   -7.8666 N   0  0  0  0  0  0  0  0  0  0  0  0
    6.7218    1.0042   -6.8504 C   0  0  0  0  0  0  0  0  0  0  0  0
    7.3246    1.2931   -5.8259 O   0  0  0  0  0  0  0  0  0  0  0  0
    7.4623   -1.9374   -6.2868 C   0  0  0  0  0  0  0  0  0  0  0  0
    8.2023   -1.7882   -7.2537 O   0  0  0  0  0  0  0  0  0  0  0  0
   -3.1332   -0.9388    4.9487 H   0  0  0  0  0  0  0  0  0  0  0  0
   -2.3117    0.3854    5.7718 H   0  0  0  0  0  0  0  0  0  0  0  0
   -5.3498   -0.4670    4.0683 H   0  0  0  0  0  0  0  0  0  0  0  0
   -6.7135    3.5674    2.4985 H   0  0  0  0  0  0  0  0  0  0  0  0
   -6.2605    5.9785    2.1215 H   0  0  0  0  0  0  0  0  0  0  0  0
   -8.9026    6.9949    5.3680 H   0  0  0  0  0  0  0  0  0  0  0  0
  -10.0661    0.0381    3.6991 H   0  0  0  0  0  0  0  0  0  0  0  0
   -6.5083    4.0253    6.0624 H   0  0  0  0  0  0  0  0  0  0  0  0
   -4.7108    5.6326    6.5879 H   0  0  0  0  0  0  0  0  0  0  0  0
   -2.3355    5.0978    6.0435 H   0  0  0  0  0  0  0  0  0  0  0  0
   -1.7696    2.8802    5.0250 H   0  0  0  0  0  0  0  0  0  0  0  0
   -1.9033   -1.8252    2.8944 H   0  0  0  0  0  0  0  0  0  0  0  0
    0.1856   -2.7328    3.9095 H   0  0  0  0  0  0  0  0  0  0  0  0
    0.7586   -1.0629    4.0822 H   0  0  0  0  0  0  0  0  0  0  0  0
    1.8968   -2.0796    2.1808 H   0  0  0  0  0  0  0  0  0  0  0  0
    0.7735   -0.8438    1.5606 H   0  0  0  0  0  0  0  0  0  0  0  0
    0.6645   -2.0337   -0.5770 H   0  0  0  0  0  0  0  0  0  0  0  0
   -0.1720   -3.5973   -0.6082 H   0  0  0  0  0  0  0  0  0  0  0  0
    1.8436   -4.6541    0.5107 H   0  0  0  0  0  0  0  0  0  0  0  0
    2.7217   -3.1126    0.2936 H   0  0  0  0  0  0  0  0  0  0  0  0
    3.0480   -5.9362   -1.0394 H   0  0  0  0  0  0  0  0  0  0  0  0
    3.0753   -5.4866   -2.7472 H   0  0  0  0  0  0  0  0  0  0  0  0
    4.6393   -3.8646   -0.6687 H   0  0  0  0  0  0  0  0  0  0  0  0
    5.2857   -5.3302   -1.4144 H   0  0  0  0  0  0  0  0  0  0  0  0
    4.2622   -3.0602   -3.1225 H   0  0  0  0  0  0  0  0  0  0  0  0
    7.1648   -5.2925   -2.2924 H   0  0  0  0  0  0  0  0  0  0  0  0
    9.2514   -5.2859   -3.6003 H   0  0  0  0  0  0  0  0  0  0  0  0
    9.5350   -3.7241   -5.5445 H   0  0  0  0  0  0  0  0  0  0  0  0
    4.8045    0.1882   -6.4875 H   0  0  0  0  0  0  0  0  0  0  0  0
    4.6284   -1.2739   -8.4628 H   0  0  0  0  0  0  0  0  0  0  0  0
    6.3179   -0.9708   -8.8840 H   0  0  0  0  0  0  0  0  0  0  0  0
    4.9032    0.4985  -10.2748 H   0  0  0  0  0  0  0  0  0  0  0  0
    4.0649    1.1298   -8.8614 H   0  0  0  0  0  0  0  0  0  0  0  0
    7.3659    2.7659   -7.7497 H   0  0  0  0  0  0  0  0  0  0  0  0
  1  2  2  0  0  0  0
  2  3  1  0  0  0  0
  2 28  1  0  0  0  0
  3  4  1  0  0  0  0
  3 57  1  0  0  0  0
  3 58  1  0  0  0  0
  4  5  1  0  0  0  0
  4 27  1  0  0  0  0
  5  6  2  0  0  0  0
  5 59  1  0  0  0  0
  6  7  1  0  0  0  0
  6 22  1  0  0  0  0
  7  8  2  0  0  0  0
  7 20  1  0  0  0  0
  8  9  1  0  0  0  0
  8 17  1  0  0  0  0
  9 10  2  0  0  0  0
  9 15  1  0  0  0  0
 10 11  1  0  0  0  0
 10 60  1  0  0  0  0
 11 12  2  0  0  0  0
 11 61  1  0  0  0  0
 12 13  1  0  0  0  0
 12 14  1  0  0  0  0
 14 15  2  0  0  0  0
 14 62  1  0  0  0  0
 15 16  1  0  0  0  0
 17 18  2  0  0  0  0
 17 19  1  0  0  0  0
 19 20  1  0  0  0  0
 19 63  1  0  0  0  0
 20 21  2  0  0  0  0
 22 23  2  0  0  0  0
 22 27  1  0  0  0  0
 23 24  1  0  0  0  0
 23 64  1  0  0  0  0
 24 25  2  0  0  0  0
 24 65  1  0  0  0  0
 25 26  1  0  0  0  0
 25 66  1  0  0  0  0
 26 27  2  0  0  0  0
 26 67  1  0  0  0  0
 28 29  1  0  0  0  0
 28 68  1  0  0  0  0
 29 30  1  0  0  0  0
 29 69  1  0  0  0  0
 29 70  1  0  0  0  0
 30 31  1  0  0  0  0
 30 71  1  0  0  0  0
 30 72  1  0  0  0  0
 31 32  1  0  0  0  0
 32 33  1  0  0  0  0
 32 73  1  0  0  0  0
 32 74  1  0  0  0  0
 33 34  1  0  0  0  0
 33 75  1  0  0  0  0
 33 76  1  0  0  0  0
 34 35  1  0  0  0  0
 35 36  1  0  0  0  0
 35 77  1  0  0  0  0
 35 78  1  0  0  0  0
 36 37  1  0  0  0  0
 36 79  1  0  0  0  0
 36 80  1  0  0  0  0
 37 38  1  0  0  0  0
 37 81  1  0  0  0  0
 38 39  2  0  0  0  0
 38 43  1  0  0  0  0
 39 40  1  0  0  0  0
 39 82  1  0  0  0  0
 40 41  2  0  0  0  0
 40 83  1  0  0  0  0
 41 42  1  0  0  0  0
 41 84  1  0  0  0  0
 42 43  2  0  0  0  0
 42 55  1  0  0  0  0
 43 44  1  0  0  0  0
 44 45  2  0  0  0  0
 44 46  1  0  0  0  0
 46 47  1  0  0  0  0
 46 55  1  0  0  0  0
 47 48  1  0  0  0  0
 47 53  1  0  0  0  0
 47 85  1  0  0  0  0
 48 49  1  0  0  0  0
 48 86  1  0  0  0  0
 48 87  1  0  0  0  0
 49 50  1  0  0  0  0
 49 88  1  0  0  0  0
 49 89  1  0  0  0  0
 50 51  2  0  0  0  0
 50 52  1  0  0  0  0
 52 53  1  0  0  0  0
 52 90  1  0  0  0  0
 53 54  2  0  0  0  0
 55 56  2  0  0  0  0
M  END
$$$$
protac3895RUN2
  chem.cr 07102519423D
protac3895RUN2
 90 96  0  0  0  0  0  0  0  0999 V2000
   -3.0482    3.1797   -0.7884 O   0  0  0  0  0  0  0  0  0  0  0  0
   -2.8868    2.6244    0.2876 C   0  0  0  0  0  0  0  0  0  0  0  0
   -3.9495    1.7581    0.9310 C   0  0  0  0  0  0  0  0  0  0  0  0
   -3.8120    0.3164    0.6361 N   0  0  0  0  0  0  0  0  0  0  0  0
   -3.5041   -0.1003   -0.6566 C   0  0  0  0  0  0  0  0  0  0  0  0
   -2.7607   -1.2355   -0.6749 C   0  0  0  0  0  0  0  0  0  0  0  0
   -2.3456   -1.8638   -1.8384 C   0  0  0  0  0  0  0  0  0  0  0  0
   -1.6005   -2.9739   -2.1182 C   0  0  0  0  0  0  0  0  0  0  0  0
   -0.9791   -3.8606   -1.2740 C   0  0  0  0  0  0  0  0  0  0  0  0
   -1.7011   -4.9605   -0.7684 C   0  0  0  0  0  0  0  0  0  0  0  0
   -1.0655   -5.9084    0.0543 C   0  0  0  0  0  0  0  0  0  0  0  0
    0.2990   -5.7689    0.3571 C   0  0  0  0  0  0  0  0  0  0  0  0
    1.0948   -6.9439    1.3948 Cl  0  0  0  0  0  0  0  0  0  0  0  0
    1.0357   -4.7004   -0.1787 C   0  0  0  0  0  0  0  0  0  0  0  0
    0.4062   -3.7545   -1.0043 C   0  0  0  0  0  0  0  0  0  0  0  0
    1.3787   -2.4544   -1.6956 Cl  0  0  0  0  0  0  0  0  0  0  0  0
   -1.4692   -3.1710   -3.4342 C   0  0  0  0  0  0  0  0  0  0  0  0
   -0.8838   -4.0108   -4.1050 O   0  0  0  0  0  0  0  0  0  0  0  0
   -2.1745   -2.1931   -4.0931 N   0  0  0  0  0  0  0  0  0  0  0  0
   -2.6638   -1.3865   -3.0758 C   0  0  0  0  0  0  0  0  0  0  0  0
   -3.2972   -0.4172   -3.4808 O   0  0  0  0  0  0  0  0  0  0  0  0
   -2.5745   -1.5406    0.7012 C   0  0  0  0  0  0  0  0  0  0  0  0
   -1.8338   -2.5128    1.4119 C   0  0  0  0  0  0  0  0  0  0  0  0
   -1.8558   -2.5482    2.8211 C   0  0  0  0  0  0  0  0  0  0  0  0
   -2.5961   -1.6109    3.5586 C   0  0  0  0  0  0  0  0  0  0  0  0
   -3.3052   -0.6071    2.8843 C   0  0  0  0  0  0  0  0  0  0  0  0
   -3.2573   -0.5925    1.4828 C   0  0  0  0  0  0  0  0  0  0  0  0
   -1.8277    3.0976    1.0735 N   0  0  0  0  0  0  0  0  0  0  0  0
   -1.0708    2.2336    1.9954 C   0  0  0  0  0  0  0  0  0  0  0  0
   -0.2803    1.1917    1.2080 C   0  0  0  0  0  0  0  0  0  0  0  0
    0.3897    0.3161    2.1141 O   0  0  0  0  0  0  0  0  0  0  0  0
    1.0434   -0.7666    1.4370 C   0  0  0  0  0  0  0  0  0  0  0  0
    1.5408   -1.8018    2.4668 C   0  0  0  0  0  0  0  0  0  0  0  0
    2.9312   -1.5707    2.7381 O   0  0  0  0  0  0  0  0  0  0  0  0
    3.2452   -0.4302    3.5503 C   0  0  0  0  0  0  0  0  0  0  0  0
    4.5412    0.1752    2.9806 C   0  0  0  0  0  0  0  0  0  0  0  0
    4.2768    0.7962    1.6679 N   0  0  0  0  0  0  0  0  0  0  0  0
    3.5938    1.9951    1.4781 C   0  0  0  0  0  0  0  0  0  0  0  0
    3.3902    2.9351    2.5199 C   0  0  0  0  0  0  0  0  0  0  0  0
    2.6710    4.1343    2.2987 C   0  0  0  0  0  0  0  0  0  0  0  0
    2.1263    4.4169    1.0323 C   0  0  0  0  0  0  0  0  0  0  0  0
    2.3343    3.4835    0.0097 C   0  0  0  0  0  0  0  0  0  0  0  0
    3.0533    2.3086    0.2214 C   0  0  0  0  0  0  0  0  0  0  0  0
    3.0252    1.5884   -0.9525 C   0  0  0  0  0  0  0  0  0  0  0  0
    3.4675    0.4652   -1.1680 O   0  0  0  0  0  0  0  0  0  0  0  0
    2.2569    2.2832   -1.9017 N   0  0  0  0  0  0  0  0  0  0  0  0
    1.4487    1.5929   -2.9305 C   0  0  0  0  0  0  0  0  0  0  0  0
    1.4599    2.3505   -4.2865 C   0  0  0  0  0  0  0  0  0  0  0  0
    0.1561    2.0967   -5.0804 C   0  0  0  0  0  0  0  0  0  0  0  0
   -1.0520    2.4368   -4.2388 C   0  0  0  0  0  0  0  0  0  0  0  0
   -2.0765    2.9364   -4.6769 O   0  0  0  0  0  0  0  0  0  0  0  0
   -1.0433    2.0146   -2.9100 N   0  0  0  0  0  0  0  0  0  0  0  0
    0.0473    1.2986   -2.4055 C   0  0  0  0  0  0  0  0  0  0  0  0
   -0.2088    0.3254   -1.7173 O   0  0  0  0  0  0  0  0  0  0  0  0
    1.8639    3.4828   -1.2804 C   0  0  0  0  0  0  0  0  0  0  0  0
    1.0121    4.2279   -1.7505 O   0  0  0  0  0  0  0  0  0  0  0  0
   -3.9436    1.9173    2.0130 H   0  0  0  0  0  0  0  0  0  0  0  0
   -4.9250    2.0861    0.5558 H   0  0  0  0  0  0  0  0  0  0  0  0
   -3.8768    0.5176   -1.4680 H   0  0  0  0  0  0  0  0  0  0  0  0
   -2.7553   -5.0666   -1.0075 H   0  0  0  0  0  0  0  0  0  0  0  0
   -1.6268   -6.7492    0.4524 H   0  0  0  0  0  0  0  0  0  0  0  0
    2.0965   -4.6070    0.0334 H   0  0  0  0  0  0  0  0  0  0  0  0
   -1.9717   -1.8691   -5.0243 H   0  0  0  0  0  0  0  0  0  0  0  0
   -1.1883   -3.2185    0.9439 H   0  0  0  0  0  0  0  0  0  0  0  0
   -1.2795   -3.3043    3.3450 H   0  0  0  0  0  0  0  0  0  0  0  0
   -2.6024   -1.6530    4.6446 H   0  0  0  0  0  0  0  0  0  0  0  0
   -3.8718    0.1338    3.4391 H   0  0  0  0  0  0  0  0  0  0  0  0
   -1.3426    3.9008    0.6894 H   0  0  0  0  0  0  0  0  0  0  0  0
   -1.7510    1.7209    2.6855 H   0  0  0  0  0  0  0  0  0  0  0  0
   -0.3704    2.8409    2.5841 H   0  0  0  0  0  0  0  0  0  0  0  0
    0.4344    1.6833    0.5404 H   0  0  0  0  0  0  0  0  0  0  0  0
   -0.9777    0.6188    0.5907 H   0  0  0  0  0  0  0  0  0  0  0  0
    1.8809   -0.4028    0.8297 H   0  0  0  0  0  0  0  0  0  0  0  0
    0.3415   -1.2576    0.7543 H   0  0  0  0  0  0  0  0  0  0  0  0
    1.4157   -2.8011    2.0335 H   0  0  0  0  0  0  0  0  0  0  0  0
    0.9378   -1.7511    3.3808 H   0  0  0  0  0  0  0  0  0  0  0  0
    2.4485    0.3247    3.5351 H   0  0  0  0  0  0  0  0  0  0  0  0
    3.3985   -0.7413    4.5919 H   0  0  0  0  0  0  0  0  0  0  0  0
    4.9563    0.9073    3.6826 H   0  0  0  0  0  0  0  0  0  0  0  0
    5.2865   -0.6245    2.8686 H   0  0  0  0  0  0  0  0  0  0  0  0
    4.3165    0.1907    0.8526 H   0  0  0  0  0  0  0  0  0  0  0  0
    3.7872    2.7468    3.5101 H   0  0  0  0  0  0  0  0  0  0  0  0
    2.5303    4.8400    3.1137 H   0  0  0  0  0  0  0  0  0  0  0  0
    1.5544    5.3243    0.8481 H   0  0  0  0  0  0  0  0  0  0  0  0
    1.9021    0.6080   -3.1064 H   0  0  0  0  0  0  0  0  0  0  0  0
    2.3396    2.0540   -4.8714 H   0  0  0  0  0  0  0  0  0  0  0  0
    1.5531    3.4303   -4.1127 H   0  0  0  0  0  0  0  0  0  0  0  0
    0.1418    2.7004   -5.9958 H   0  0  0  0  0  0  0  0  0  0  0  0
    0.0895    1.0454   -5.3874 H   0  0  0  0  0  0  0  0  0  0  0  0
   -1.8967    2.0766   -2.3689 H   0  0  0  0  0  0  0  0  0  0  0  0
  1  2  2  0  0  0  0
  2  3  1  0  0  0  0
  2 28  1  0  0  0  0
  3  4  1  0  0  0  0
  3 57  1  0  0  0  0
  3 58  1  0  0  0  0
  4  5  1  0  0  0  0
  4 27  1  0  0  0  0
  5  6  2  0  0  0  0
  5 59  1  0  0  0  0
  6  7  1  0  0  0  0
  6 22  1  0  0  0  0
  7  8  2  0  0  0  0
  7 20  1  0  0  0  0
  8  9  1  0  0  0  0
  8 17  1  0  0  0  0
  9 10  2  0  0  0  0
  9 15  1  0  0  0  0
 10 11  1  0  0  0  0
 10 60  1  0  0  0  0
 11 12  2  0  0  0  0
 11 61  1  0  0  0  0
 12 13  1  0  0  0  0
 12 14  1  0  0  0  0
 14 15  2  0  0  0  0
 14 62  1  0  0  0  0
 15 16  1  0  0  0  0
 17 18  2  0  0  0  0
 17 19  1  0  0  0  0
 19 20  1  0  0  0  0
 19 63  1  0  0  0  0
 20 21  2  0  0  0  0
 22 23  2  0  0  0  0
 22 27  1  0  0  0  0
 23 24  1  0  0  0  0
 23 64  1  0  0  0  0
 24 25  2  0  0  0  0
 24 65  1  0  0  0  0
 25 26  1  0  0  0  0
 25 66  1  0  0  0  0
 26 27  2  0  0  0  0
 26 67  1  0  0  0  0
 28 29  1  0  0  0  0
 28 68  1  0  0  0  0
 29 30  1  0  0  0  0
 29 69  1  0  0  0  0
 29 70  1  0  0  0  0
 30 31  1  0  0  0  0
 30 71  1  0  0  0  0
 30 72  1  0  0  0  0
 31 32  1  0  0  0  0
 32 33  1  0  0  0  0
 32 73  1  0  0  0  0
 32 74  1  0  0  0  0
 33 34  1  0  0  0  0
 33 75  1  0  0  0  0
 33 76  1  0  0  0  0
 34 35  1  0  0  0  0
 35 36  1  0  0  0  0
 35 77  1  0  0  0  0
 35 78  1  0  0  0  0
 36 37  1  0  0  0  0
 36 79  1  0  0  0  0
 36 80  1  0  0  0  0
 37 38  1  0  0  0  0
 37 81  1  0  0  0  0
 38 39  2  0  0  0  0
 38 43  1  0  0  0  0
 39 40  1  0  0  0  0
 39 82  1  0  0  0  0
 40 41  2  0  0  0  0
 40 83  1  0  0  0  0
 41 42  1  0  0  0  0
 41 84  1  0  0  0  0
 42 43  2  0  0  0  0
 42 55  1  0  0  0  0
 43 44  1  0  0  0  0
 44 45  2  0  0  0  0
 44 46  1  0  0  0  0
 46 47  1  0  0  0  0
 46 55  1  0  0  0  0
 47 48  1  0  0  0  0
 47 53  1  0  0  0  0
 47 85  1  0  0  0  0
 48 49  1  0  0  0  0
 48 86  1  0  0  0  0
 48 87  1  0  0  0  0
 49 50  1  0  0  0  0
 49 88  1  0  0  0  0
 49 89  1  0  0  0  0
 50 51  2  0  0  0  0
 50 52  1  0  0  0  0
 52 53  1  0  0  0  0
 52 90  1  0  0  0  0
 53 54  2  0  0  0  0
 55 56  2  0  0  0  0
M  END
$$$$
protac3895RUN2
  chem.cr 07102519423D
protac3895RUN2
 90 96  0  0  0  0  0  0  0  0999 V2000
    1.3926    1.2866    2.6871 O   0  0  0  0  0  0  0  0  0  0  0  0
    0.8112    0.3222    2.2139 C   0  0  0  0  0  0  0  0  0  0  0  0
   -0.1599   -0.5163    3.0191 C   0  0  0  0  0  0  0  0  0  0  0  0
   -0.7793   -1.6574    2.3083 N   0  0  0  0  0  0  0  0  0  0  0  0
   -2.1673   -1.7592    2.1664 C   0  0  0  0  0  0  0  0  0  0  0  0
   -2.5782   -3.0526    2.1611 C   0  0  0  0  0  0  0  0  0  0  0  0
   -3.8908   -3.4664    2.1944 C   0  0  0  0  0  0  0  0  0  0  0  0
   -4.5010   -4.6755    2.3805 C   0  0  0  0  0  0  0  0  0  0  0  0
   -3.9430   -5.9117    2.6507 C   0  0  0  0  0  0  0  0  0  0  0  0
   -3.3389   -6.1583    3.9003 C   0  0  0  0  0  0  0  0  0  0  0  0
   -2.8162   -7.4308    4.2022 C   0  0  0  0  0  0  0  0  0  0  0  0
   -2.9074   -8.4706    3.2630 C   0  0  0  0  0  0  0  0  0  0  0  0
   -2.2527  -10.0573    3.6448 Cl  0  0  0  0  0  0  0  0  0  0  0  0
   -3.5188   -8.2425    2.0212 C   0  0  0  0  0  0  0  0  0  0  0  0
   -4.0445   -6.9745    1.7160 C   0  0  0  0  0  0  0  0  0  0  0  0
   -4.7512   -6.7196    0.1196 Cl  0  0  0  0  0  0  0  0  0  0  0  0
   -5.8328   -4.5574    2.3449 C   0  0  0  0  0  0  0  0  0  0  0  0
   -6.7540   -5.3562    2.4769 O   0  0  0  0  0  0  0  0  0  0  0  0
   -6.1544   -3.2328    2.1532 N   0  0  0  0  0  0  0  0  0  0  0  0
   -4.9268   -2.5955    2.0432 C   0  0  0  0  0  0  0  0  0  0  0  0
   -4.9975   -1.3934    1.8240 O   0  0  0  0  0  0  0  0  0  0  0  0
   -1.3834   -3.8018    2.2011 C   0  0  0  0  0  0  0  0  0  0  0  0
   -1.0887   -5.1514    1.9324 C   0  0  0  0  0  0  0  0  0  0  0  0
    0.2416   -5.6149    2.0255 C   0  0  0  0  0  0  0  0  0  0  0  0
    1.2999   -4.7223    2.2953 C   0  0  0  0  0  0  0  0  0  0  0  0
    1.0373   -3.3488    2.4222 C   0  0  0  0  0  0  0  0  0  0  0  0
   -0.2969   -2.9297    2.3570 C   0  0  0  0  0  0  0  0  0  0  0  0
    1.2615   -0.1931    0.9866 N   0  0  0  0  0  0  0  0  0  0  0  0
    2.3928    0.3873    0.2480 C   0  0  0  0  0  0  0  0  0  0  0  0
    2.4921   -0.1526   -1.1851 C   0  0  0  0  0  0  0  0  0  0  0  0
    3.7592    0.2712   -1.6976 O   0  0  0  0  0  0  0  0  0  0  0  0
    3.9851   -0.0299   -3.0814 C   0  0  0  0  0  0  0  0  0  0  0  0
    5.3743    0.5025   -3.4936 C   0  0  0  0  0  0  0  0  0  0  0  0
    5.2959    1.9260   -3.6610 O   0  0  0  0  0  0  0  0  0  0  0  0
    5.5963    2.7149   -2.4999 C   0  0  0  0  0  0  0  0  0  0  0  0
    5.1257    4.1447   -2.7941 C   0  0  0  0  0  0  0  0  0  0  0  0
    3.6644    4.2111   -2.6554 N   0  0  0  0  0  0  0  0  0  0  0  0
    2.8772    5.3251   -2.9079 C   0  0  0  0  0  0  0  0  0  0  0  0
    3.3960    6.5072   -3.4907 C   0  0  0  0  0  0  0  0  0  0  0  0
    2.5593    7.6165   -3.7562 C   0  0  0  0  0  0  0  0  0  0  0  0
    1.1858    7.5704   -3.4368 C   0  0  0  0  0  0  0  0  0  0  0  0
    0.6863    6.3979   -2.8579 C   0  0  0  0  0  0  0  0  0  0  0  0
    1.5088    5.3047   -2.5973 C   0  0  0  0  0  0  0  0  0  0  0  0
    0.7451    4.3106   -2.0273 C   0  0  0  0  0  0  0  0  0  0  0  0
    1.1574    3.4042   -1.3137 O   0  0  0  0  0  0  0  0  0  0  0  0
   -0.5794    4.7776   -1.9290 N   0  0  0  0  0  0  0  0  0  0  0  0
   -1.7964    3.9347   -1.8213 C   0  0  0  0  0  0  0  0  0  0  0  0
   -2.6624    4.3632   -0.6132 C   0  0  0  0  0  0  0  0  0  0  0  0
   -2.0219    3.8489    0.6923 C   0  0  0  0  0  0  0  0  0  0  0  0
   -1.8372    2.3497    0.6534 C   0  0  0  0  0  0  0  0  0  0  0  0
   -2.1109    1.6178    1.5916 O   0  0  0  0  0  0  0  0  0  0  0  0
   -1.5333    1.7370   -0.5709 N   0  0  0  0  0  0  0  0  0  0  0  0
   -1.5086    2.4336   -1.7904 C   0  0  0  0  0  0  0  0  0  0  0  0
   -1.3155    1.7657   -2.7955 O   0  0  0  0  0  0  0  0  0  0  0  0
   -0.5875    6.0806   -2.4499 C   0  0  0  0  0  0  0  0  0  0  0  0
   -1.6256    6.6845   -2.6957 O   0  0  0  0  0  0  0  0  0  0  0  0
    0.3738   -0.8992    3.8944 H   0  0  0  0  0  0  0  0  0  0  0  0
   -0.9455    0.1478    3.3929 H   0  0  0  0  0  0  0  0  0  0  0  0
   -2.7423   -0.8372    2.1782 H   0  0  0  0  0  0  0  0  0  0  0  0
   -3.2725   -5.3592    4.6333 H   0  0  0  0  0  0  0  0  0  0  0  0
   -2.3434   -7.6107    5.1626 H   0  0  0  0  0  0  0  0  0  0  0  0
   -3.5822   -9.0454    1.2928 H   0  0  0  0  0  0  0  0  0  0  0  0
   -7.0105   -2.8980    1.7380 H   0  0  0  0  0  0  0  0  0  0  0  0
   -1.8305   -5.8448    1.5869 H   0  0  0  0  0  0  0  0  0  0  0  0
    0.4532   -6.6669    1.8537 H   0  0  0  0  0  0  0  0  0  0  0  0
    2.3222   -5.0893    2.3429 H   0  0  0  0  0  0  0  0  0  0  0  0
    1.8455   -2.6341    2.5445 H   0  0  0  0  0  0  0  0  0  0  0  0
    0.8293   -1.0461    0.6478 H   0  0  0  0  0  0  0  0  0  0  0  0
    3.3252    0.1775    0.7920 H   0  0  0  0  0  0  0  0  0  0  0  0
    2.2707    1.4795    0.2052 H   0  0  0  0  0  0  0  0  0  0  0  0
    1.6673    0.2550   -1.7847 H   0  0  0  0  0  0  0  0  0  0  0  0
    2.4221   -1.2484   -1.1842 H   0  0  0  0  0  0  0  0  0  0  0  0
    3.2176    0.4341   -3.7159 H   0  0  0  0  0  0  0  0  0  0  0  0
    3.9603   -1.1152   -3.2432 H   0  0  0  0  0  0  0  0  0  0  0  0
    5.6538    0.0377   -4.4466 H   0  0  0  0  0  0  0  0  0  0  0  0
    6.1293    0.2247   -2.7458 H   0  0  0  0  0  0  0  0  0  0  0  0
    5.0898    2.3418   -1.6003 H   0  0  0  0  0  0  0  0  0  0  0  0
    6.6761    2.7098   -2.3105 H   0  0  0  0  0  0  0  0  0  0  0  0
    5.5966    4.8412   -2.0864 H   0  0  0  0  0  0  0  0  0  0  0  0
    5.4308    4.4232   -3.8126 H   0  0  0  0  0  0  0  0  0  0  0  0
    3.1853    3.3949   -2.2838 H   0  0  0  0  0  0  0  0  0  0  0  0
    4.4444    6.5712   -3.7522 H   0  0  0  0  0  0  0  0  0  0  0  0
    2.9788    8.5122   -4.2073 H   0  0  0  0  0  0  0  0  0  0  0  0
    0.5333    8.4174   -3.6360 H   0  0  0  0  0  0  0  0  0  0  0  0
   -2.3815    4.1181   -2.7342 H   0  0  0  0  0  0  0  0  0  0  0  0
   -3.6681    3.9353   -0.7192 H   0  0  0  0  0  0  0  0  0  0  0  0
   -2.7781    5.4549   -0.5863 H   0  0  0  0  0  0  0  0  0  0  0  0
   -1.0434    4.3243    0.8432 H   0  0  0  0  0  0  0  0  0  0  0  0
   -2.6418    4.1255    1.5551 H   0  0  0  0  0  0  0  0  0  0  0  0
   -1.3506    0.7463   -0.5845 H   0  0  0  0  0  0  0  0  0  0  0  0
  1  2  2  0  0  0  0
  2  3  1  0  0  0  0
  2 28  1  0  0  0  0
  3  4  1  0  0  0  0
  3 57  1  0  0  0  0
  3 58  1  0  0  0  0
  4  5  1  0  0  0  0
  4 27  1  0  0  0  0
  5  6  2  0  0  0  0
  5 59  1  0  0  0  0
  6  7  1  0  0  0  0
  6 22  1  0  0  0  0
  7  8  2  0  0  0  0
  7 20  1  0  0  0  0
  8  9  1  0  0  0  0
  8 17  1  0  0  0  0
  9 10  2  0  0  0  0
  9 15  1  0  0  0  0
 10 11  1  0  0  0  0
 10 60  1  0  0  0  0
 11 12  2  0  0  0  0
 11 61  1  0  0  0  0
 12 13  1  0  0  0  0
 12 14  1  0  0  0  0
 14 15  2  0  0  0  0
 14 62  1  0  0  0  0
 15 16  1  0  0  0  0
 17 18  2  0  0  0  0
 17 19  1  0  0  0  0
 19 20  1  0  0  0  0
 19 63  1  0  0  0  0
 20 21  2  0  0  0  0
 22 23  2  0  0  0  0
 22 27  1  0  0  0  0
 23 24  1  0  0  0  0
 23 64  1  0  0  0  0
 24 25  2  0  0  0  0
 24 65  1  0  0  0  0
 25 26  1  0  0  0  0
 25 66  1  0  0  0  0
 26 27  2  0  0  0  0
 26 67  1  0  0  0  0
 28 29  1  0  0  0  0
 28 68  1  0  0  0  0
 29 30  1  0  0  0  0
 29 69  1  0  0  0  0
 29 70  1  0  0  0  0
 30 31  1  0  0  0  0
 30 71  1  0  0  0  0
 30 72  1  0  0  0  0
 31 32  1  0  0  0  0
 32 33  1  0  0  0  0
 32 73  1  0  0  0  0
 32 74  1  0  0  0  0
 33 34  1  0  0  0  0
 33 75  1  0  0  0  0
 33 76  1  0  0  0  0
 34 35  1  0  0  0  0
 35 36  1  0  0  0  0
 35 77  1  0  0  0  0
 35 78  1  0  0  0  0
 36 37  1  0  0  0  0
 36 79  1  0  0  0  0
 36 80  1  0  0  0  0
 37 38  1  0  0  0  0
 37 81  1  0  0  0  0
 38 39  2  0  0  0  0
 38 43  1  0  0  0  0
 39 40  1  0  0  0  0
 39 82  1  0  0  0  0
 40 41  2  0  0  0  0
 40 83  1  0  0  0  0
 41 42  1  0  0  0  0
 41 84  1  0  0  0  0
 42 43  2  0  0  0  0
 42 55  1  0  0  0  0
 43 44  1  0  0  0  0
 44 45  2  0  0  0  0
 44 46  1  0  0  0  0
 46 47  1  0  0  0  0
 46 55  1  0  0  0  0
 47 48  1  0  0  0  0
 47 53  1  0  0  0  0
 47 85  1  0  0  0  0
 48 49  1  0  0  0  0
 48 86  1  0  0  0  0
 48 87  1  0  0  0  0
 49 50  1  0  0  0  0
 49 88  1  0  0  0  0
 49 89  1  0  0  0  0
 50 51  2  0  0  0  0
 50 52  1  0  0  0  0
 52 53  1  0  0  0  0
 52 90  1  0  0  0  0
 53 54  2  0  0  0  0
 55 56  2  0  0  0  0
M  END
$$$$
protac3895RUN2
  chem.cr 07102519423D
protac3895RUN2
 90 96  0  0  0  0  0  0  0  0999 V2000
    1.7124   -3.2451    2.6857 O   0  0  0  0  0  0  0  0  0  0  0  0
    0.8553   -3.1514    1.8162 C   0  0  0  0  0  0  0  0  0  0  0  0
   -0.0588   -4.2976    1.4540 C   0  0  0  0  0  0  0  0  0  0  0  0
   -0.8946   -4.8075    2.5627 N   0  0  0  0  0  0  0  0  0  0  0  0
   -2.0758   -4.1103    2.8688 C   0  0  0  0  0  0  0  0  0  0  0  0
   -3.1053   -4.9529    3.1195 C   0  0  0  0  0  0  0  0  0  0  0  0
   -4.3474   -4.5990    3.5916 C   0  0  0  0  0  0  0  0  0  0  0  0
   -5.3604   -5.3237    4.1323 C   0  0  0  0  0  0  0  0  0  0  0  0
   -5.3712   -6.6664    4.4685 C   0  0  0  0  0  0  0  0  0  0  0  0
   -4.4071   -7.1629    5.3720 C   0  0  0  0  0  0  0  0  0  0  0  0
   -4.3866   -8.5254    5.7179 C   0  0  0  0  0  0  0  0  0  0  0  0
   -5.3537   -9.3954    5.1937 C   0  0  0  0  0  0  0  0  0  0  0  0
   -5.3319  -11.0986    5.6286 Cl  0  0  0  0  0  0  0  0  0  0  0  0
   -6.3343   -8.9111    4.3145 C   0  0  0  0  0  0  0  0  0  0  0  0
   -6.3461   -7.5532    3.9497 C   0  0  0  0  0  0  0  0  0  0  0  0
   -7.5492   -7.0177    2.7751 Cl  0  0  0  0  0  0  0  0  0  0  0  0
   -6.3793   -4.5340    4.4972 C   0  0  0  0  0  0  0  0  0  0  0  0
   -7.4256   -4.7340    5.0928 O   0  0  0  0  0  0  0  0  0  0  0  0
   -6.0708   -3.2312    4.1588 N   0  0  0  0  0  0  0  0  0  0  0  0
   -4.7807   -3.3129    3.6465 C   0  0  0  0  0  0  0  0  0  0  0  0
   -4.2742   -2.2444    3.3263 O   0  0  0  0  0  0  0  0  0  0  0  0
   -2.5860   -6.2329    2.8678 C   0  0  0  0  0  0  0  0  0  0  0  0
   -3.2031   -7.4664    2.5871 C   0  0  0  0  0  0  0  0  0  0  0  0
   -2.4110   -8.6048    2.3341 C   0  0  0  0  0  0  0  0  0  0  0  0
   -1.0066   -8.5049    2.2676 C   0  0  0  0  0  0  0  0  0  0  0  0
   -0.3953   -7.2431    2.3737 C   0  0  0  0  0  0  0  0  0  0  0  0
   -1.2121   -6.1354    2.6332 C   0  0  0  0  0  0  0  0  0  0  0  0
    1.0297   -2.1720    0.8213 N   0  0  0  0  0  0  0  0  0  0  0  0
    2.2976   -1.4424    0.6262 C   0  0  0  0  0  0  0  0  0  0  0  0
    2.1045   -0.1280   -0.1503 C   0  0  0  0  0  0  0  0  0  0  0  0
    3.4054    0.4413   -0.3612 O   0  0  0  0  0  0  0  0  0  0  0  0
    3.4190    1.5945   -1.2195 C   0  0  0  0  0  0  0  0  0  0  0  0
    4.8602    2.1291   -1.3034 C   0  0  0  0  0  0  0  0  0  0  0  0
    4.9599    2.8880   -2.5180 O   0  0  0  0  0  0  0  0  0  0  0  0
    5.9706    3.9070   -2.5092 C   0  0  0  0  0  0  0  0  0  0  0  0
    5.9045    4.6795   -3.8434 C   0  0  0  0  0  0  0  0  0  0  0  0
    4.5130    5.0678   -4.1243 N   0  0  0  0  0  0  0  0  0  0  0  0
    4.1111    6.2498   -4.7322 C   0  0  0  0  0  0  0  0  0  0  0  0
    4.9805    7.0441   -5.5124 C   0  0  0  0  0  0  0  0  0  0  0  0
    4.5351    8.2560   -6.0942 C   0  0  0  0  0  0  0  0  0  0  0  0
    3.2052    8.6937   -5.9157 C   0  0  0  0  0  0  0  0  0  0  0  0
    2.3501    7.8932   -5.1427 C   0  0  0  0  0  0  0  0  0  0  0  0
    2.7949    6.7013   -4.5728 C   0  0  0  0  0  0  0  0  0  0  0  0
    1.7555    6.1541   -3.8621 C   0  0  0  0  0  0  0  0  0  0  0  0
    1.7707    5.1478   -3.1631 O   0  0  0  0  0  0  0  0  0  0  0  0
    0.6582    7.0205   -3.9480 N   0  0  0  0  0  0  0  0  0  0  0  0
   -0.5828    6.9788   -3.1426 C   0  0  0  0  0  0  0  0  0  0  0  0
   -0.3885    7.6755   -1.7763 C   0  0  0  0  0  0  0  0  0  0  0  0
    0.3752    6.7580   -0.7907 C   0  0  0  0  0  0  0  0  0  0  0  0
   -0.2244    5.3700   -0.7087 C   0  0  0  0  0  0  0  0  0  0  0  0
   -0.1091    4.6461    0.2699 O   0  0  0  0  0  0  0  0  0  0  0  0
   -1.0191    4.8986   -1.7610 N   0  0  0  0  0  0  0  0  0  0  0  0
   -1.1546    5.5734   -2.9857 C   0  0  0  0  0  0  0  0  0  0  0  0
   -1.8995    5.0585   -3.8100 O   0  0  0  0  0  0  0  0  0  0  0  0
    1.0351    8.0879   -4.7751 C   0  0  0  0  0  0  0  0  0  0  0  0
    0.4024    9.1379   -4.7981 O   0  0  0  0  0  0  0  0  0  0  0  0
   -0.7193   -4.0176    0.6261 H   0  0  0  0  0  0  0  0  0  0  0  0
    0.5703   -5.1157    1.0911 H   0  0  0  0  0  0  0  0  0  0  0  0
   -2.0165   -3.0294    2.9725 H   0  0  0  0  0  0  0  0  0  0  0  0
   -3.6598   -6.4918    5.7832 H   0  0  0  0  0  0  0  0  0  0  0  0
   -3.6242   -8.9067    6.3936 H   0  0  0  0  0  0  0  0  0  0  0  0
   -7.0745   -9.5914    3.9032 H   0  0  0  0  0  0  0  0  0  0  0  0
   -6.3977   -2.4385    4.6886 H   0  0  0  0  0  0  0  0  0  0  0  0
   -4.2741   -7.5590    2.5105 H   0  0  0  0  0  0  0  0  0  0  0  0
   -2.8924   -9.5643    2.1708 H   0  0  0  0  0  0  0  0  0  0  0  0
   -0.4080   -9.3898    2.0696 H   0  0  0  0  0  0  0  0  0  0  0  0
    0.6750   -7.1259    2.2390 H   0  0  0  0  0  0  0  0  0  0  0  0
    0.3104   -2.0715    0.1170 H   0  0  0  0  0  0  0  0  0  0  0  0
    2.9932   -2.0924    0.0772 H   0  0  0  0  0  0  0  0  0  0  0  0
    2.7493   -1.2153    1.6021 H   0  0  0  0  0  0  0  0  0  0  0  0
    1.4709    0.5538    0.4315 H   0  0  0  0  0  0  0  0  0  0  0  0
    1.6130   -0.3310   -1.1108 H   0  0  0  0  0  0  0  0  0  0  0  0
    2.7666    2.3868   -0.8256 H   0  0  0  0  0  0  0  0  0  0  0  0
    3.0678    1.3265   -2.2255 H   0  0  0  0  0  0  0  0  0  0  0  0
    5.5754    1.2979   -1.3106 H   0  0  0  0  0  0  0  0  0  0  0  0
    5.0641    2.7547   -0.4261 H   0  0  0  0  0  0  0  0  0  0  0  0
    5.7841    4.6059   -1.6840 H   0  0  0  0  0  0  0  0  0  0  0  0
    6.9711    3.4728   -2.3776 H   0  0  0  0  0  0  0  0  0  0  0  0
    6.5424    5.5712   -3.7622 H   0  0  0  0  0  0  0  0  0  0  0  0
    6.2848    4.0458   -4.6552 H   0  0  0  0  0  0  0  0  0  0  0  0
    3.7796    4.5310   -3.6658 H   0  0  0  0  0  0  0  0  0  0  0  0
    6.0020    6.7230   -5.6838 H   0  0  0  0  0  0  0  0  0  0  0  0
    5.2217    8.8521   -6.6880 H   0  0  0  0  0  0  0  0  0  0  0  0
    2.8538    9.6215   -6.3603 H   0  0  0  0  0  0  0  0  0  0  0  0
   -1.3373    7.5502   -3.7003 H   0  0  0  0  0  0  0  0  0  0  0  0
   -1.3746    7.9140   -1.3553 H   0  0  0  0  0  0  0  0  0  0  0  0
    0.1409    8.6280   -1.9141 H   0  0  0  0  0  0  0  0  0  0  0  0
    1.4279    6.6706   -1.0899 H   0  0  0  0  0  0  0  0  0  0  0  0
    0.3777    7.2053    0.2098 H   0  0  0  0  0  0  0  0  0  0  0  0
   -1.4298    3.9814   -1.6767 H   0  0  0  0  0  0  0  0  0  0  0  0
  1  2  2  0  0  0  0
  2  3  1  0  0  0  0
  2 28  1  0  0  0  0
  3  4  1  0  0  0  0
  3 57  1  0  0  0  0
  3 58  1  0  0  0  0
  4  5  1  0  0  0  0
  4 27  1  0  0  0  0
  5  6  2  0  0  0  0
  5 59  1  0  0  0  0
  6  7  1  0  0  0  0
  6 22  1  0  0  0  0
  7  8  2  0  0  0  0
  7 20  1  0  0  0  0
  8  9  1  0  0  0  0
  8 17  1  0  0  0  0
  9 10  2  0  0  0  0
  9 15  1  0  0  0  0
 10 11  1  0  0  0  0
 10 60  1  0  0  0  0
 11 12  2  0  0  0  0
 11 61  1  0  0  0  0
 12 13  1  0  0  0  0
 12 14  1  0  0  0  0
 14 15  2  0  0  0  0
 14 62  1  0  0  0  0
 15 16  1  0  0  0  0
 17 18  2  0  0  0  0
 17 19  1  0  0  0  0
 19 20  1  0  0  0  0
 19 63  1  0  0  0  0
 20 21  2  0  0  0  0
 22 23  2  0  0  0  0
 22 27  1  0  0  0  0
 23 24  1  0  0  0  0
 23 64  1  0  0  0  0
 24 25  2  0  0  0  0
 24 65  1  0  0  0  0
 25 26  1  0  0  0  0
 25 66  1  0  0  0  0
 26 27  2  0  0  0  0
 26 67  1  0  0  0  0
 28 29  1  0  0  0  0
 28 68  1  0  0  0  0
 29 30  1  0  0  0  0
 29 69  1  0  0  0  0
 29 70  1  0  0  0  0
 30 31  1  0  0  0  0
 30 71  1  0  0  0  0
 30 72  1  0  0  0  0
 31 32  1  0  0  0  0
 32 33  1  0  0  0  0
 32 73  1  0  0  0  0
 32 74  1  0  0  0  0
 33 34  1  0  0  0  0
 33 75  1  0  0  0  0
 33 76  1  0  0  0  0
 34 35  1  0  0  0  0
 35 36  1  0  0  0  0
 35 77  1  0  0  0  0
 35 78  1  0  0  0  0
 36 37  1  0  0  0  0
 36 79  1  0  0  0  0
 36 80  1  0  0  0  0
 37 38  1  0  0  0  0
 37 81  1  0  0  0  0
 38 39  2  0  0  0  0
 38 43  1  0  0  0  0
 39 40  1  0  0  0  0
 39 82  1  0  0  0  0
 40 41  2  0  0  0  0
 40 83  1  0  0  0  0
 41 42  1  0  0  0  0
 41 84  1  0  0  0  0
 42 43  2  0  0  0  0
 42 55  1  0  0  0  0
 43 44  1  0  0  0  0
 44 45  2  0  0  0  0
 44 46  1  0  0  0  0
 46 47  1  0  0  0  0
 46 55  1  0  0  0  0
 47 48  1  0  0  0  0
 47 53  1  0  0  0  0
 47 85  1  0  0  0  0
 48 49  1  0  0  0  0
 48 86  1  0  0  0  0
 48 87  1  0  0  0  0
 49 50  1  0  0  0  0
 49 88  1  0  0  0  0
 49 89  1  0  0  0  0
 50 51  2  0  0  0  0
 50 52  1  0  0  0  0
 52 53  1  0  0  0  0
 52 90  1  0  0  0  0
 53 54  2  0  0  0  0
 55 56  2  0  0  0  0
M  END
$$$$
protac3895RUN2
  chem.cr 07102519423D
protac3895RUN2
 90 96  0  0  0  0  0  0  0  0999 V2000
    1.3335   -3.3460    3.5151 O   0  0  0  0  0  0  0  0  0  0  0  0
    0.9321   -3.4711    2.3654 C   0  0  0  0  0  0  0  0  0  0  0  0
    0.2523   -4.7152    1.8393 C   0  0  0  0  0  0  0  0  0  0  0  0
   -0.5266   -5.4737    2.8377 N   0  0  0  0  0  0  0  0  0  0  0  0
   -1.4997   -4.8203    3.6070 C   0  0  0  0  0  0  0  0  0  0  0  0
   -2.5410   -5.6367    3.8860 C   0  0  0  0  0  0  0  0  0  0  0  0
   -3.5750   -5.3571    4.7457 C   0  0  0  0  0  0  0  0  0  0  0  0
   -4.5283   -6.1402    5.3233 C   0  0  0  0  0  0  0  0  0  0  0  0
   -4.6511   -7.5178    5.2969 C   0  0  0  0  0  0  0  0  0  0  0  0
   -3.6037   -8.3172    5.7980 C   0  0  0  0  0  0  0  0  0  0  0  0
   -3.7214   -9.7192    5.8232 C   0  0  0  0  0  0  0  0  0  0  0  0
   -4.8976  -10.3333    5.3663 C   0  0  0  0  0  0  0  0  0  0  0  0
   -5.0352  -12.0847    5.3857 Cl  0  0  0  0  0  0  0  0  0  0  0  0
   -5.9585   -9.5482    4.8860 C   0  0  0  0  0  0  0  0  0  0  0  0
   -5.8418   -8.1471    4.8516 C   0  0  0  0  0  0  0  0  0  0  0  0
   -7.1819   -7.2079    4.1911 Cl  0  0  0  0  0  0  0  0  0  0  0  0
   -5.3035   -5.4220    6.1448 C   0  0  0  0  0  0  0  0  0  0  0  0
   -6.1908   -5.7158    6.9345 O   0  0  0  0  0  0  0  0  0  0  0  0
   -4.9044   -4.1008    6.0920 N   0  0  0  0  0  0  0  0  0  0  0  0
   -3.7945   -4.1215    5.2567 C   0  0  0  0  0  0  0  0  0  0  0  0
   -3.2310   -3.0401    5.1225 O   0  0  0  0  0  0  0  0  0  0  0  0
   -2.2757   -6.8129    3.1657 C   0  0  0  0  0  0  0  0  0  0  0  0
   -3.1089   -7.8704    2.7492 C   0  0  0  0  0  0  0  0  0  0  0  0
   -2.5738   -8.9177    1.9720 C   0  0  0  0  0  0  0  0  0  0  0  0
   -1.2415   -8.8681    1.5162 C   0  0  0  0  0  0  0  0  0  0  0  0
   -0.4521   -7.7375    1.7891 C   0  0  0  0  0  0  0  0  0  0  0  0
   -1.0054   -6.7293    2.5900 C   0  0  0  0  0  0  0  0  0  0  0  0
    1.2703   -2.4975    1.4082 N   0  0  0  0  0  0  0  0  0  0  0  0
    2.0078   -1.2652    1.7296 C   0  0  0  0  0  0  0  0  0  0  0  0
    1.1861   -0.0106    1.3907 C   0  0  0  0  0  0  0  0  0  0  0  0
    1.1394    0.1203   -0.0384 O   0  0  0  0  0  0  0  0  0  0  0  0
    0.4305    1.2779   -0.5089 C   0  0  0  0  0  0  0  0  0  0  0  0
    0.6870    1.4252   -2.0209 C   0  0  0  0  0  0  0  0  0  0  0  0
    2.0376    1.8903   -2.1871 O   0  0  0  0  0  0  0  0  0  0  0  0
    2.5227    1.9753   -3.5387 C   0  0  0  0  0  0  0  0  0  0  0  0
    1.9925    3.2565   -4.2306 C   0  0  0  0  0  0  0  0  0  0  0  0
    2.5105    4.4985   -3.6263 N   0  0  0  0  0  0  0  0  0  0  0  0
    3.5915    5.1832   -4.1700 C   0  0  0  0  0  0  0  0  0  0  0  0
    4.8461    4.5682   -4.3844 C   0  0  0  0  0  0  0  0  0  0  0  0
    5.9345    5.2945   -4.9291 C   0  0  0  0  0  0  0  0  0  0  0  0
    5.7878    6.6523   -5.2835 C   0  0  0  0  0  0  0  0  0  0  0  0
    4.5393    7.2494   -5.0715 C   0  0  0  0  0  0  0  0  0  0  0  0
    3.4702    6.5349   -4.5245 C   0  0  0  0  0  0  0  0  0  0  0  0
    2.3907    7.3834   -4.4485 C   0  0  0  0  0  0  0  0  0  0  0  0
    1.3102    7.1719   -3.9092 O   0  0  0  0  0  0  0  0  0  0  0  0
    2.7907    8.6501   -4.9098 N   0  0  0  0  0  0  0  0  0  0  0  0
    2.0085    9.9056   -4.9374 C   0  0  0  0  0  0  0  0  0  0  0  0
    2.1735   10.6884   -3.6167 C   0  0  0  0  0  0  0  0  0  0  0  0
    1.2892   10.0746   -2.5092 C   0  0  0  0  0  0  0  0  0  0  0  0
   -0.1500    9.9012   -2.9509 C   0  0  0  0  0  0  0  0  0  0  0  0
   -1.0960    9.9423   -2.1773 O   0  0  0  0  0  0  0  0  0  0  0  0
   -0.4445    9.8015   -4.3162 N   0  0  0  0  0  0  0  0  0  0  0  0
    0.5438    9.6988   -5.3077 C   0  0  0  0  0  0  0  0  0  0  0  0
    0.1502    9.6807   -6.4652 O   0  0  0  0  0  0  0  0  0  0  0  0
    4.1243    8.5377   -5.3193 C   0  0  0  0  0  0  0  0  0  0  0  0
    4.8069    9.5110   -5.6155 O   0  0  0  0  0  0  0  0  0  0  0  0
   -0.4265   -4.4467    1.0202 H   0  0  0  0  0  0  0  0  0  0  0  0
    1.0265   -5.3748    1.4346 H   0  0  0  0  0  0  0  0  0  0  0  0
   -1.2792   -3.8214    3.9723 H   0  0  0  0  0  0  0  0  0  0  0  0
   -2.6954   -7.8444    6.1654 H   0  0  0  0  0  0  0  0  0  0  0  0
   -2.9055  -10.3270    6.2057 H   0  0  0  0  0  0  0  0  0  0  0  0
   -6.8690  -10.0268    4.5360 H   0  0  0  0  0  0  0  0  0  0  0  0
   -5.0167   -3.4469    6.8499 H   0  0  0  0  0  0  0  0  0  0  0  0
   -4.1646   -7.8717    2.9587 H   0  0  0  0  0  0  0  0  0  0  0  0
   -3.2105   -9.7512    1.6901 H   0  0  0  0  0  0  0  0  0  0  0  0
   -0.8449   -9.6702    0.8997 H   0  0  0  0  0  0  0  0  0  0  0  0
    0.5436   -7.6405    1.3699 H   0  0  0  0  0  0  0  0  0  0  0  0
    0.9763   -2.6316    0.4487 H   0  0  0  0  0  0  0  0  0  0  0  0
    2.9521   -1.2490    1.1702 H   0  0  0  0  0  0  0  0  0  0  0  0
    2.2575   -1.2461    2.7990 H   0  0  0  0  0  0  0  0  0  0  0  0
    1.6768    0.8644    1.8373 H   0  0  0  0  0  0  0  0  0  0  0  0
    0.1778   -0.0976    1.8203 H   0  0  0  0  0  0  0  0  0  0  0  0
    0.7707    2.1860    0.0037 H   0  0  0  0  0  0  0  0  0  0  0  0
   -0.6453    1.1606   -0.3290 H   0  0  0  0  0  0  0  0  0  0  0  0
   -0.0247    2.1468   -2.4426 H   0  0  0  0  0  0  0  0  0  0  0  0
    0.5316    0.4549   -2.5137 H   0  0  0  0  0  0  0  0  0  0  0  0
    3.6177    1.9822   -3.5316 H   0  0  0  0  0  0  0  0  0  0  0  0
    2.2127    1.0939   -4.1161 H   0  0  0  0  0  0  0  0  0  0  0  0
    2.2690    3.2283   -5.2937 H   0  0  0  0  0  0  0  0  0  0  0  0
    0.8957    3.2667   -4.1830 H   0  0  0  0  0  0  0  0  0  0  0  0
    1.8085    5.1126   -3.2249 H   0  0  0  0  0  0  0  0  0  0  0  0
    4.9929    3.5320   -4.1009 H   0  0  0  0  0  0  0  0  0  0  0  0
    6.8935    4.8015   -5.0741 H   0  0  0  0  0  0  0  0  0  0  0  0
    6.6133    7.2202   -5.7081 H   0  0  0  0  0  0  0  0  0  0  0  0
    2.4355   10.5305   -5.7373 H   0  0  0  0  0  0  0  0  0  0  0  0
    1.8698   11.7297   -3.7833 H   0  0  0  0  0  0  0  0  0  0  0  0
    3.2298   10.7015   -3.3119 H   0  0  0  0  0  0  0  0  0  0  0  0
    1.6875    9.0968   -2.2124 H   0  0  0  0  0  0  0  0  0  0  0  0
    1.3250   10.7034   -1.6095 H   0  0  0  0  0  0  0  0  0  0  0  0
   -1.4088    9.7082   -4.5950 H   0  0  0  0  0  0  0  0  0  0  0  0
  1  2  2  0  0  0  0
  2  3  1  0  0  0  0
  2 28  1  0  0  0  0
  3  4  1  0  0  0  0
  3 57  1  0  0  0  0
  3 58  1  0  0  0  0
  4  5  1  0  0  0  0
  4 27  1  0  0  0  0
  5  6  2  0  0  0  0
  5 59  1  0  0  0  0
  6  7  1  0  0  0  0
  6 22  1  0  0  0  0
  7  8  2  0  0  0  0
  7 20  1  0  0  0  0
  8  9  1  0  0  0  0
  8 17  1  0  0  0  0
  9 10  2  0  0  0  0
  9 15  1  0  0  0  0
 10 11  1  0  0  0  0
 10 60  1  0  0  0  0
 11 12  2  0  0  0  0
 11 61  1  0  0  0  0
 12 13  1  0  0  0  0
 12 14  1  0  0  0  0
 14 15  2  0  0  0  0
 14 62  1  0  0  0  0
 15 16  1  0  0  0  0
 17 18  2  0  0  0  0
 17 19  1  0  0  0  0
 19 20  1  0  0  0  0
 19 63  1  0  0  0  0
 20 21  2  0  0  0  0
 22 23  2  0  0  0  0
 22 27  1  0  0  0  0
 23 24  1  0  0  0  0
 23 64  1  0  0  0  0
 24 25  2  0  0  0  0
 24 65  1  0  0  0  0
 25 26  1  0  0  0  0
 25 66  1  0  0  0  0
 26 27  2  0  0  0  0
 26 67  1  0  0  0  0
 28 29  1  0  0  0  0
 28 68  1  0  0  0  0
 29 30  1  0  0  0  0
 29 69  1  0  0  0  0
 29 70  1  0  0  0  0
 30 31  1  0  0  0  0
 30 71  1  0  0  0  0
 30 72  1  0  0  0  0
 31 32  1  0  0  0  0
 32 33  1  0  0  0  0
 32 73  1  0  0  0  0
 32 74  1  0  0  0  0
 33 34  1  0  0  0  0
 33 75  1  0  0  0  0
 33 76  1  0  0  0  0
 34 35  1  0  0  0  0
 35 36  1  0  0  0  0
 35 77  1  0  0  0  0
 35 78  1  0  0  0  0
 36 37  1  0  0  0  0
 36 79  1  0  0  0  0
 36 80  1  0  0  0  0
 37 38  1  0  0  0  0
 37 81  1  0  0  0  0
 38 39  2  0  0  0  0
 38 43  1  0  0  0  0
 39 40  1  0  0  0  0
 39 82  1  0  0  0  0
 40 41  2  0  0  0  0
 40 83  1  0  0  0  0
 41 42  1  0  0  0  0
 41 84  1  0  0  0  0
 42 43  2  0  0  0  0
 42 55  1  0  0  0  0
 43 44  1  0  0  0  0
 44 45  2  0  0  0  0
 44 46  1  0  0  0  0
 46 47  1  0  0  0  0
 46 55  1  0  0  0  0
 47 48  1  0  0  0  0
 47 53  1  0  0  0  0
 47 85  1  0  0  0  0
 48 49  1  0  0  0  0
 48 86  1  0  0  0  0
 48 87  1  0  0  0  0
 49 50  1  0  0  0  0
 49 88  1  0  0  0  0
 49 89  1  0  0  0  0
 50 51  2  0  0  0  0
 50 52  1  0  0  0  0
 52 53  1  0  0  0  0
 52 90  1  0  0  0  0
 53 54  2  0  0  0  0
 55 56  2  0  0  0  0
M  END
$$$$
protac3895RUN2
  chem.cr 07102519423D
protac3895RUN2
 90 96  0  0  0  0  0  0  0  0999 V2000
    0.9669    0.4186    2.3207 O   0  0  0  0  0  0  0  0  0  0  0  0
    0.1489   -0.2038    1.6572 C   0  0  0  0  0  0  0  0  0  0  0  0
    0.2378   -1.6827    1.3842 C   0  0  0  0  0  0  0  0  0  0  0  0
   -0.4929   -2.5364    2.3427 N   0  0  0  0  0  0  0  0  0  0  0  0
   -1.2091   -2.0602    3.4518 C   0  0  0  0  0  0  0  0  0  0  0  0
   -1.9354   -3.0593    4.0027 C   0  0  0  0  0  0  0  0  0  0  0  0
   -2.6171   -3.0063    5.1873 C   0  0  0  0  0  0  0  0  0  0  0  0
   -3.0841   -3.9906    6.0007 C   0  0  0  0  0  0  0  0  0  0  0  0
   -2.8228   -5.3488    5.9131 C   0  0  0  0  0  0  0  0  0  0  0  0
   -1.4807   -5.7779    5.8508 C   0  0  0  0  0  0  0  0  0  0  0  0
   -1.1653   -7.1442    5.7835 C   0  0  0  0  0  0  0  0  0  0  0  0
   -2.1903   -8.1006    5.7977 C   0  0  0  0  0  0  0  0  0  0  0  0
   -1.7940   -9.8128    5.7086 Cl  0  0  0  0  0  0  0  0  0  0  0  0
   -3.5317   -7.6918    5.8756 C   0  0  0  0  0  0  0  0  0  0  0  0
   -3.8527   -6.3232    5.9343 C   0  0  0  0  0  0  0  0  0  0  0  0
   -5.5580   -5.8656    5.9598 Cl  0  0  0  0  0  0  0  0  0  0  0  0
   -3.6499   -3.4718    7.0973 C   0  0  0  0  0  0  0  0  0  0  0  0
   -4.0854   -3.9607    8.1326 O   0  0  0  0  0  0  0  0  0  0  0  0
   -3.6155   -2.0925    7.0040 N   0  0  0  0  0  0  0  0  0  0  0  0
   -2.9035   -1.8508    5.8330 C   0  0  0  0  0  0  0  0  0  0  0  0
   -2.6849   -0.6726    5.5776 O   0  0  0  0  0  0  0  0  0  0  0  0
   -1.7887   -4.1509    3.1300 C   0  0  0  0  0  0  0  0  0  0  0  0
   -2.5723   -5.3060    2.9515 C   0  0  0  0  0  0  0  0  0  0  0  0
   -2.2533   -6.2114    1.9176 C   0  0  0  0  0  0  0  0  0  0  0  0
   -1.2169   -5.9244    1.0029 C   0  0  0  0  0  0  0  0  0  0  0  0
   -0.5303   -4.6997    1.0830 C   0  0  0  0  0  0  0  0  0  0  0  0
   -0.8562   -3.8372    2.1383 C   0  0  0  0  0  0  0  0  0  0  0  0
   -1.0249    0.4368    1.2403 N   0  0  0  0  0  0  0  0  0  0  0  0
   -1.0262    1.8478    0.8267 C   0  0  0  0  0  0  0  0  0  0  0  0
   -1.6158    2.0300   -0.5867 C   0  0  0  0  0  0  0  0  0  0  0  0
   -0.9929    1.0645   -1.4457 O   0  0  0  0  0  0  0  0  0  0  0  0
   -1.1477    1.3071   -2.8490 C   0  0  0  0  0  0  0  0  0  0  0  0
   -0.4182    0.1867   -3.6138 C   0  0  0  0  0  0  0  0  0  0  0  0
    0.9782    0.2770   -3.2865 O   0  0  0  0  0  0  0  0  0  0  0  0
    1.8906   -0.4594   -4.1173 C   0  0  0  0  0  0  0  0  0  0  0  0
    2.0632    0.2761   -5.4692 C   0  0  0  0  0  0  0  0  0  0  0  0
    2.2917    1.7168   -5.2569 N   0  0  0  0  0  0  0  0  0  0  0  0
    3.4903    2.2877   -4.8418 C   0  0  0  0  0  0  0  0  0  0  0  0
    4.7529    1.6778   -5.0383 C   0  0  0  0  0  0  0  0  0  0  0  0
    5.9429    2.3061   -4.5935 C   0  0  0  0  0  0  0  0  0  0  0  0
    5.8962    3.5553   -3.9401 C   0  0  0  0  0  0  0  0  0  0  0  0
    4.6432    4.1491   -3.7579 C   0  0  0  0  0  0  0  0  0  0  0  0
    3.4735    3.5350   -4.2017 C   0  0  0  0  0  0  0  0  0  0  0  0
    2.4133    4.3552   -3.8840 C   0  0  0  0  0  0  0  0  0  0  0  0
    1.2284    4.0449   -3.8372 O   0  0  0  0  0  0  0  0  0  0  0  0
    2.9141    5.4887   -3.2210 N   0  0  0  0  0  0  0  0  0  0  0  0
    2.2220    6.7871   -3.0525 C   0  0  0  0  0  0  0  0  0  0  0  0
    1.6259    6.9255   -1.6346 C   0  0  0  0  0  0  0  0  0  0  0  0
    0.3320    6.0905   -1.5056 C   0  0  0  0  0  0  0  0  0  0  0  0
   -0.6467    6.3578   -2.6313 C   0  0  0  0  0  0  0  0  0  0  0  0
   -1.8500    6.1689   -2.5319 O   0  0  0  0  0  0  0  0  0  0  0  0
   -0.1813    6.8775   -3.8452 N   0  0  0  0  0  0  0  0  0  0  0  0
    1.1798    7.0509   -4.1324 C   0  0  0  0  0  0  0  0  0  0  0  0
    1.4493    7.5240   -5.2275 O   0  0  0  0  0  0  0  0  0  0  0  0
    4.3048    5.3421   -3.1637 C   0  0  0  0  0  0  0  0  0  0  0  0
    5.0411    6.1848   -2.6660 O   0  0  0  0  0  0  0  0  0  0  0  0
   -0.1394   -1.8786    0.3741 H   0  0  0  0  0  0  0  0  0  0  0  0
    1.2931   -1.9752    1.4041 H   0  0  0  0  0  0  0  0  0  0  0  0
   -1.0234   -1.0521    3.8155 H   0  0  0  0  0  0  0  0  0  0  0  0
   -0.6808   -5.0423    5.8423 H   0  0  0  0  0  0  0  0  0  0  0  0
   -0.1273   -7.4598    5.7222 H   0  0  0  0  0  0  0  0  0  0  0  0
   -4.3228   -8.4353    5.8881 H   0  0  0  0  0  0  0  0  0  0  0  0
   -3.5912   -1.4775    7.8013 H   0  0  0  0  0  0  0  0  0  0  0  0
   -3.4477   -5.4900    3.5545 H   0  0  0  0  0  0  0  0  0  0  0  0
   -2.8364   -7.1210    1.8048 H   0  0  0  0  0  0  0  0  0  0  0  0
   -0.9943   -6.6241    0.2008 H   0  0  0  0  0  0  0  0  0  0  0  0
    0.2075   -4.4244    0.3362 H   0  0  0  0  0  0  0  0  0  0  0  0
   -1.7721   -0.1483    0.8913 H   0  0  0  0  0  0  0  0  0  0  0  0
    0.0051    2.2267    0.8257 H   0  0  0  0  0  0  0  0  0  0  0  0
   -1.5978    2.4401    1.5530 H   0  0  0  0  0  0  0  0  0  0  0  0
   -1.4139    3.0534   -0.9326 H   0  0  0  0  0  0  0  0  0  0  0  0
   -2.7030    1.8806   -0.5629 H   0  0  0  0  0  0  0  0  0  0  0  0
   -0.7088    2.2757   -3.1234 H   0  0  0  0  0  0  0  0  0  0  0  0
   -2.2097    1.3127   -3.1268 H   0  0  0  0  0  0  0  0  0  0  0  0
   -0.5874    0.3302   -4.6874 H   0  0  0  0  0  0  0  0  0  0  0  0
   -0.8249   -0.7899   -3.3242 H   0  0  0  0  0  0  0  0  0  0  0  0
    2.8677   -0.5137   -3.6188 H   0  0  0  0  0  0  0  0  0  0  0  0
    1.5380   -1.4865   -4.2796 H   0  0  0  0  0  0  0  0  0  0  0  0
    2.8931   -0.1716   -6.0278 H   0  0  0  0  0  0  0  0  0  0  0  0
    1.1601    0.1403   -6.0777 H   0  0  0  0  0  0  0  0  0  0  0  0
    1.4754    2.2698   -5.0109 H   0  0  0  0  0  0  0  0  0  0  0  0
    4.8277    0.7210   -5.5424 H   0  0  0  0  0  0  0  0  0  0  0  0
    6.9033    1.8236   -4.7572 H   0  0  0  0  0  0  0  0  0  0  0  0
    6.8012    4.0472   -3.5899 H   0  0  0  0  0  0  0  0  0  0  0  0
    2.9822    7.5719   -3.1665 H   0  0  0  0  0  0  0  0  0  0  0  0
    1.3946    7.9835   -1.4475 H   0  0  0  0  0  0  0  0  0  0  0  0
    2.3649    6.6170   -0.8825 H   0  0  0  0  0  0  0  0  0  0  0  0
    0.5772    5.0219   -1.5025 H   0  0  0  0  0  0  0  0  0  0  0  0
   -0.1537    6.3003   -0.5453 H   0  0  0  0  0  0  0  0  0  0  0  0
   -0.8479    7.0436   -4.5835 H   0  0  0  0  0  0  0  0  0  0  0  0
  1  2  2  0  0  0  0
  2  3  1  0  0  0  0
  2 28  1  0  0  0  0
  3  4  1  0  0  0  0
  3 57  1  0  0  0  0
  3 58  1  0  0  0  0
  4  5  1  0  0  0  0
  4 27  1  0  0  0  0
  5  6  2  0  0  0  0
  5 59  1  0  0  0  0
  6  7  1  0  0  0  0
  6 22  1  0  0  0  0
  7  8  2  0  0  0  0
  7 20  1  0  0  0  0
  8  9  1  0  0  0  0
  8 17  1  0  0  0  0
  9 10  2  0  0  0  0
  9 15  1  0  0  0  0
 10 11  1  0  0  0  0
 10 60  1  0  0  0  0
 11 12  2  0  0  0  0
 11 61  1  0  0  0  0
 12 13  1  0  0  0  0
 12 14  1  0  0  0  0
 14 15  2  0  0  0  0
 14 62  1  0  0  0  0
 15 16  1  0  0  0  0
 17 18  2  0  0  0  0
 17 19  1  0  0  0  0
 19 20  1  0  0  0  0
 19 63  1  0  0  0  0
 20 21  2  0  0  0  0
 22 23  2  0  0  0  0
 22 27  1  0  0  0  0
 23 24  1  0  0  0  0
 23 64  1  0  0  0  0
 24 25  2  0  0  0  0
 24 65  1  0  0  0  0
 25 26  1  0  0  0  0
 25 66  1  0  0  0  0
 26 27  2  0  0  0  0
 26 67  1  0  0  0  0
 28 29  1  0  0  0  0
 28 68  1  0  0  0  0
 29 30  1  0  0  0  0
 29 69  1  0  0  0  0
 29 70  1  0  0  0  0
 30 31  1  0  0  0  0
 30 71  1  0  0  0  0
 30 72  1  0  0  0  0
 31 32  1  0  0  0  0
 32 33  1  0  0  0  0
 32 73  1  0  0  0  0
 32 74  1  0  0  0  0
 33 34  1  0  0  0  0
 33 75  1  0  0  0  0
 33 76  1  0  0  0  0
 34 35  1  0  0  0  0
 35 36  1  0  0  0  0
 35 77  1  0  0  0  0
 35 78  1  0  0  0  0
 36 37  1  0  0  0  0
 36 79  1  0  0  0  0
 36 80  1  0  0  0  0
 37 38  1  0  0  0  0
 37 81  1  0  0  0  0
 38 39  2  0  0  0  0
 38 43  1  0  0  0  0
 39 40  1  0  0  0  0
 39 82  1  0  0  0  0
 40 41  2  0  0  0  0
 40 83  1  0  0  0  0
 41 42  1  0  0  0  0
 41 84  1  0  0  0  0
 42 43  2  0  0  0  0
 42 55  1  0  0  0  0
 43 44  1  0  0  0  0
 44 45  2  0  0  0  0
 44 46  1  0  0  0  0
 46 47  1  0  0  0  0
 46 55  1  0  0  0  0
 47 48  1  0  0  0  0
 47 53  1  0  0  0  0
 47 85  1  0  0  0  0
 48 49  1  0  0  0  0
 48 86  1  0  0  0  0
 48 87  1  0  0  0  0
 49 50  1  0  0  0  0
 49 88  1  0  0  0  0
 49 89  1  0  0  0  0
 50 51  2  0  0  0  0
 50 52  1  0  0  0  0
 52 53  1  0  0  0  0
 52 90  1  0  0  0  0
 53 54  2  0  0  0  0
 55 56  2  0  0  0  0
M  END
$$$$
protac3895RUN2
  chem.cr 07102519423D
protac3895RUN2
 90 96  0  0  0  0  0  0  0  0999 V2000
    0.7907    4.3801   -1.7530 O   0  0  0  0  0  0  0  0  0  0  0  0
   -0.1055    4.3830   -0.9192 C   0  0  0  0  0  0  0  0  0  0  0  0
    0.0698    4.9435    0.4762 C   0  0  0  0  0  0  0  0  0  0  0  0
    0.3405    3.9085    1.5002 N   0  0  0  0  0  0  0  0  0  0  0  0
   -0.7275    3.3355    2.2011 C   0  0  0  0  0  0  0  0  0  0  0  0
   -0.5037    2.0279    2.4687 C   0  0  0  0  0  0  0  0  0  0  0  0
   -1.2885    1.2279    3.2612 C   0  0  0  0  0  0  0  0  0  0  0  0
   -1.0879    0.0029    3.8174 C   0  0  0  0  0  0  0  0  0  0  0  0
    0.0712   -0.7508    3.8153 C   0  0  0  0  0  0  0  0  0  0  0  0
    1.2477   -0.1991    4.3622 C   0  0  0  0  0  0  0  0  0  0  0  0
    2.4475   -0.9310    4.3631 C   0  0  0  0  0  0  0  0  0  0  0  0
    2.4758   -2.2290    3.8306 C   0  0  0  0  0  0  0  0  0  0  0  0
    3.9798   -3.1388    3.8130 Cl  0  0  0  0  0  0  0  0  0  0  0  0
    1.3057   -2.8014    3.3089 C   0  0  0  0  0  0  0  0  0  0  0  0
    0.1026   -2.0749    3.3075 C   0  0  0  0  0  0  0  0  0  0  0  0
   -1.3215   -2.8216    2.5820 Cl  0  0  0  0  0  0  0  0  0  0  0  0
   -2.1501   -0.3831    4.5369 C   0  0  0  0  0  0  0  0  0  0  0  0
   -2.3907   -1.3621    5.2307 O   0  0  0  0  0  0  0  0  0  0  0  0
   -3.1021    0.6155    4.4806 N   0  0  0  0  0  0  0  0  0  0  0  0
   -2.5277    1.5920    3.6767 C   0  0  0  0  0  0  0  0  0  0  0  0
   -3.2275    2.5744    3.4614 O   0  0  0  0  0  0  0  0  0  0  0  0
    0.7039    1.7294    1.8139 C   0  0  0  0  0  0  0  0  0  0  0  0
    1.2825    0.5141    1.3933 C   0  0  0  0  0  0  0  0  0  0  0  0
    2.5253    0.5300    0.7264 C   0  0  0  0  0  0  0  0  0  0  0  0
    3.1410    1.7492    0.3776 C   0  0  0  0  0  0  0  0  0  0  0  0
    2.4723    2.9597    0.6188 C   0  0  0  0  0  0  0  0  0  0  0  0
    1.2553    2.9087    1.3081 C   0  0  0  0  0  0  0  0  0  0  0  0
   -1.2426    3.5938   -1.1523 N   0  0  0  0  0  0  0  0  0  0  0  0
   -1.1283    2.2694   -1.7777 C   0  0  0  0  0  0  0  0  0  0  0  0
   -2.4850    1.6299   -2.1609 C   0  0  0  0  0  0  0  0  0  0  0  0
   -3.4493    1.6845   -1.0837 O   0  0  0  0  0  0  0  0  0  0  0  0
   -3.0627    1.2457    0.2369 C   0  0  0  0  0  0  0  0  0  0  0  0
   -2.5776   -0.2228    0.2698 C   0  0  0  0  0  0  0  0  0  0  0  0
   -3.7221   -1.0937    0.2853 O   0  0  0  0  0  0  0  0  0  0  0  0
   -4.1200   -1.6787   -0.9639 C   0  0  0  0  0  0  0  0  0  0  0  0
   -3.3305   -2.9954   -1.1653 C   0  0  0  0  0  0  0  0  0  0  0  0
   -1.9542   -2.7414   -1.6235 N   0  0  0  0  0  0  0  0  0  0  0  0
   -0.7968   -3.3071   -1.0971 C   0  0  0  0  0  0  0  0  0  0  0  0
   -0.7906   -4.4754   -0.2974 C   0  0  0  0  0  0  0  0  0  0  0  0
    0.4224   -5.0146    0.1991 C   0  0  0  0  0  0  0  0  0  0  0  0
    1.6576   -4.4054   -0.1052 C   0  0  0  0  0  0  0  0  0  0  0  0
    1.6386   -3.2597   -0.9086 C   0  0  0  0  0  0  0  0  0  0  0  0
    0.4451   -2.7272   -1.3878 C   0  0  0  0  0  0  0  0  0  0  0  0
    0.7494   -1.6355   -2.1662 C   0  0  0  0  0  0  0  0  0  0  0  0
   -0.0039   -0.7138   -2.4564 O   0  0  0  0  0  0  0  0  0  0  0  0
    2.1461   -1.4805   -2.2022 N   0  0  0  0  0  0  0  0  0  0  0  0
    2.8920   -0.9389   -3.3625 C   0  0  0  0  0  0  0  0  0  0  0  0
    3.4229    0.4837   -3.0907 C   0  0  0  0  0  0  0  0  0  0  0  0
    2.2710    1.5099   -3.1585 C   0  0  0  0  0  0  0  0  0  0  0  0
    1.4583    1.3765   -4.4316 C   0  0  0  0  0  0  0  0  0  0  0  0
    0.8222    2.2941   -4.9259 O   0  0  0  0  0  0  0  0  0  0  0  0
    1.4467    0.1589   -5.1246 N   0  0  0  0  0  0  0  0  0  0  0  0
    2.0912   -0.9943   -4.6563 C   0  0  0  0  0  0  0  0  0  0  0  0
    2.0259   -1.9886   -5.3655 O   0  0  0  0  0  0  0  0  0  0  0  0
    2.6722   -2.4982   -1.3975 C   0  0  0  0  0  0  0  0  0  0  0  0
    3.8734   -2.6099   -1.1798 O   0  0  0  0  0  0  0  0  0  0  0  0
    0.9194    5.6355    0.4598 H   0  0  0  0  0  0  0  0  0  0  0  0
   -0.8184    5.5213    0.7527 H   0  0  0  0  0  0  0  0  0  0  0  0
   -1.5340    3.9854    2.5302 H   0  0  0  0  0  0  0  0  0  0  0  0
    1.2344    0.8115    4.7629 H   0  0  0  0  0  0  0  0  0  0  0  0
    3.3536   -0.4892    4.7686 H   0  0  0  0  0  0  0  0  0  0  0  0
    1.3306   -3.8059    2.8984 H   0  0  0  0  0  0  0  0  0  0  0  0
   -4.0948    0.4592    4.5604 H   0  0  0  0  0  0  0  0  0  0  0  0
    0.7872   -0.4333    1.5301 H   0  0  0  0  0  0  0  0  0  0  0  0
    3.0009   -0.4097    0.4610 H   0  0  0  0  0  0  0  0  0  0  0  0
    4.0993    1.7522   -0.1326 H   0  0  0  0  0  0  0  0  0  0  0  0
    2.8737    3.9023    0.2594 H   0  0  0  0  0  0  0  0  0  0  0  0
   -2.0885    3.7878   -0.6317 H   0  0  0  0  0  0  0  0  0  0  0  0
   -0.5794    1.6020   -1.0986 H   0  0  0  0  0  0  0  0  0  0  0  0
   -0.5290    2.3646   -2.6922 H   0  0  0  0  0  0  0  0  0  0  0  0
   -2.3169    0.5957   -2.4821 H   0  0  0  0  0  0  0  0  0  0  0  0
   -2.8854    2.1704   -3.0278 H   0  0  0  0  0  0  0  0  0  0  0  0
   -3.9110    1.3505    0.9253 H   0  0  0  0  0  0  0  0  0  0  0  0
   -2.2663    1.8861    0.6205 H   0  0  0  0  0  0  0  0  0  0  0  0
   -2.0086   -0.3674    1.1944 H   0  0  0  0  0  0  0  0  0  0  0  0
   -1.8929   -0.4310   -0.5573 H   0  0  0  0  0  0  0  0  0  0  0  0
   -5.1892   -1.9226   -0.9157 H   0  0  0  0  0  0  0  0  0  0  0  0
   -3.9739   -0.9869   -1.8041 H   0  0  0  0  0  0  0  0  0  0  0  0
   -3.3371   -3.5422   -0.2143 H   0  0  0  0  0  0  0  0  0  0  0  0
   -3.8496   -3.6120   -1.9110 H   0  0  0  0  0  0  0  0  0  0  0  0
   -1.8055   -1.9350   -2.2207 H   0  0  0  0  0  0  0  0  0  0  0  0
   -1.7192   -4.9834   -0.0636 H   0  0  0  0  0  0  0  0  0  0  0  0
    0.4028   -5.9148    0.8088 H   0  0  0  0  0  0  0  0  0  0  0  0
    2.5984   -4.8191    0.2510 H   0  0  0  0  0  0  0  0  0  0  0  0
    3.7645   -1.5881   -3.5197 H   0  0  0  0  0  0  0  0  0  0  0  0
    4.1742    0.7363   -3.8506 H   0  0  0  0  0  0  0  0  0  0  0  0
    3.9270    0.5184   -2.1178 H   0  0  0  0  0  0  0  0  0  0  0  0
    1.6108    1.3795   -2.2925 H   0  0  0  0  0  0  0  0  0  0  0  0
    2.6636    2.5325   -3.0851 H   0  0  0  0  0  0  0  0  0  0  0  0
    0.9070    0.0960   -5.9743 H   0  0  0  0  0  0  0  0  0  0  0  0
  1  2  2  0  0  0  0
  2  3  1  0  0  0  0
  2 28  1  0  0  0  0
  3  4  1  0  0  0  0
  3 57  1  0  0  0  0
  3 58  1  0  0  0  0
  4  5  1  0  0  0  0
  4 27  1  0  0  0  0
  5  6  2  0  0  0  0
  5 59  1  0  0  0  0
  6  7  1  0  0  0  0
  6 22  1  0  0  0  0
  7  8  2  0  0  0  0
  7 20  1  0  0  0  0
  8  9  1  0  0  0  0
  8 17  1  0  0  0  0
  9 10  2  0  0  0  0
  9 15  1  0  0  0  0
 10 11  1  0  0  0  0
 10 60  1  0  0  0  0
 11 12  2  0  0  0  0
 11 61  1  0  0  0  0
 12 13  1  0  0  0  0
 12 14  1  0  0  0  0
 14 15  2  0  0  0  0
 14 62  1  0  0  0  0
 15 16  1  0  0  0  0
 17 18  2  0  0  0  0
 17 19  1  0  0  0  0
 19 20  1  0  0  0  0
 19 63  1  0  0  0  0
 20 21  2  0  0  0  0
 22 23  2  0  0  0  0
 22 27  1  0  0  0  0
 23 24  1  0  0  0  0
 23 64  1  0  0  0  0
 24 25  2  0  0  0  0
 24 65  1  0  0  0  0
 25 26  1  0  0  0  0
 25 66  1  0  0  0  0
 26 27  2  0  0  0  0
 26 67  1  0  0  0  0
 28 29  1  0  0  0  0
 28 68  1  0  0  0  0
 29 30  1  0  0  0  0
 29 69  1  0  0  0  0
 29 70  1  0  0  0  0
 30 31  1  0  0  0  0
 30 71  1  0  0  0  0
 30 72  1  0  0  0  0
 31 32  1  0  0  0  0
 32 33  1  0  0  0  0
 32 73  1  0  0  0  0
 32 74  1  0  0  0  0
 33 34  1  0  0  0  0
 33 75  1  0  0  0  0
 33 76  1  0  0  0  0
 34 35  1  0  0  0  0
 35 36  1  0  0  0  0
 35 77  1  0  0  0  0
 35 78  1  0  0  0  0
 36 37  1  0  0  0  0
 36 79  1  0  0  0  0
 36 80  1  0  0  0  0
 37 38  1  0  0  0  0
 37 81  1  0  0  0  0
 38 39  2  0  0  0  0
 38 43  1  0  0  0  0
 39 40  1  0  0  0  0
 39 82  1  0  0  0  0
 40 41  2  0  0  0  0
 40 83  1  0  0  0  0
 41 42  1  0  0  0  0
 41 84  1  0  0  0  0
 42 43  2  0  0  0  0
 42 55  1  0  0  0  0
 43 44  1  0  0  0  0
 44 45  2  0  0  0  0
 44 46  1  0  0  0  0
 46 47  1  0  0  0  0
 46 55  1  0  0  0  0
 47 48  1  0  0  0  0
 47 53  1  0  0  0  0
 47 85  1  0  0  0  0
 48 49  1  0  0  0  0
 48 86  1  0  0  0  0
 48 87  1  0  0  0  0
 49 50  1  0  0  0  0
 49 88  1  0  0  0  0
 49 89  1  0  0  0  0
 50 51  2  0  0  0  0
 50 52  1  0  0  0  0
 52 53  1  0  0  0  0
 52 90  1  0  0  0  0
 53 54  2  0  0  0  0
 55 56  2  0  0  0  0
M  END
$$$$
protac3895RUN2
  chem.cr 07102519423D
protac3895RUN2
 90 96  0  0  0  0  0  0  0  0999 V2000
    1.4275    5.2382    0.8364 O   0  0  0  0  0  0  0  0  0  0  0  0
    0.4193    4.7612    1.3406 C   0  0  0  0  0  0  0  0  0  0  0  0
   -0.0346    5.0552    2.7477 C   0  0  0  0  0  0  0  0  0  0  0  0
   -0.0126    3.8751    3.6300 N   0  0  0  0  0  0  0  0  0  0  0  0
   -1.1454    3.1277    3.9344 C   0  0  0  0  0  0  0  0  0  0  0  0
   -0.8188    1.9073    4.4281 C   0  0  0  0  0  0  0  0  0  0  0  0
   -1.7294    1.0015    4.9289 C   0  0  0  0  0  0  0  0  0  0  0  0
   -1.6247   -0.1857    5.5926 C   0  0  0  0  0  0  0  0  0  0  0  0
   -0.5062   -0.8639    6.0243 C   0  0  0  0  0  0  0  0  0  0  0  0
    0.1853   -0.4132    7.1653 C   0  0  0  0  0  0  0  0  0  0  0  0
    1.2732   -1.1461    7.6713 C   0  0  0  0  0  0  0  0  0  0  0  0
    1.6728   -2.3362    7.0426 C   0  0  0  0  0  0  0  0  0  0  0  0
    3.0266   -3.2579    7.6834 Cl  0  0  0  0  0  0  0  0  0  0  0  0
    0.9768   -2.8038    5.9170 C   0  0  0  0  0  0  0  0  0  0  0  0
   -0.1160   -2.0799    5.4126 C   0  0  0  0  0  0  0  0  0  0  0  0
   -0.9508   -2.6886    3.9831 Cl  0  0  0  0  0  0  0  0  0  0  0  0
   -2.8246   -0.6932    5.8907 C   0  0  0  0  0  0  0  0  0  0  0  0
   -3.1876   -1.7077    6.4712 O   0  0  0  0  0  0  0  0  0  0  0  0
   -3.7919    0.1790    5.4452 N   0  0  0  0  0  0  0  0  0  0  0  0
   -3.0743    1.1962    4.8317 C   0  0  0  0  0  0  0  0  0  0  0  0
   -3.7675    2.0639    4.3131 O   0  0  0  0  0  0  0  0  0  0  0  0
    0.5974    1.8590    4.3432 C   0  0  0  0  0  0  0  0  0  0  0  0
    1.5522    0.8257    4.4768 C   0  0  0  0  0  0  0  0  0  0  0  0
    2.9230    1.0916    4.2697 C   0  0  0  0  0  0  0  0  0  0  0  0
    3.3617    2.3660    3.8624 C   0  0  0  0  0  0  0  0  0  0  0  0
    2.4210    3.3784    3.6259 C   0  0  0  0  0  0  0  0  0  0  0  0
    1.0724    3.0915    3.8716 C   0  0  0  0  0  0  0  0  0  0  0  0
   -0.3845    3.9005    0.5830 N   0  0  0  0  0  0  0  0  0  0  0  0
    0.1332    3.1193   -0.5471 C   0  0  0  0  0  0  0  0  0  0  0  0
   -1.0080    2.4155   -1.3188 C   0  0  0  0  0  0  0  0  0  0  0  0
   -1.9679    1.8744   -0.3853 O   0  0  0  0  0  0  0  0  0  0  0  0
   -1.5692    0.7416    0.4131 C   0  0  0  0  0  0  0  0  0  0  0  0
   -1.5721   -0.5565   -0.4330 C   0  0  0  0  0  0  0  0  0  0  0  0
   -2.9325   -0.9096   -0.7406 O   0  0  0  0  0  0  0  0  0  0  0  0
   -3.4793   -0.3872   -1.9644 C   0  0  0  0  0  0  0  0  0  0  0  0
   -3.4259   -1.5044   -3.0265 C   0  0  0  0  0  0  0  0  0  0  0  0
   -2.0463   -1.7642   -3.4737 N   0  0  0  0  0  0  0  0  0  0  0  0
   -1.6052   -2.9140   -4.1226 C   0  0  0  0  0  0  0  0  0  0  0  0
   -2.3820   -4.0941   -4.2261 C   0  0  0  0  0  0  0  0  0  0  0  0
   -1.8937   -5.2358   -4.9092 C   0  0  0  0  0  0  0  0  0  0  0  0
   -0.6181   -5.2191   -5.5078 C   0  0  0  0  0  0  0  0  0  0  0  0
    0.1377   -4.0472   -5.4019 C   0  0  0  0  0  0  0  0  0  0  0  0
   -0.3416   -2.9270   -4.7287 C   0  0  0  0  0  0  0  0  0  0  0  0
    0.6000   -1.9307   -4.8400 C   0  0  0  0  0  0  0  0  0  0  0  0
    0.6980   -0.9284   -4.1379 O   0  0  0  0  0  0  0  0  0  0  0  0
    1.6840   -2.4130   -5.5967 N   0  0  0  0  0  0  0  0  0  0  0  0
    2.5233   -1.5727   -6.4830 C   0  0  0  0  0  0  0  0  0  0  0  0
    3.9062   -1.2874   -5.8579 C   0  0  0  0  0  0  0  0  0  0  0  0
    3.8083   -0.1559   -4.8109 C   0  0  0  0  0  0  0  0  0  0  0  0
    3.1214    1.0752   -5.3630 C   0  0  0  0  0  0  0  0  0  0  0  0
    3.3806    2.2130   -4.9999 O   0  0  0  0  0  0  0  0  0  0  0  0
    2.1572    0.9331   -6.3683 N   0  0  0  0  0  0  0  0  0  0  0  0
    1.8131   -0.3021   -6.9345 C   0  0  0  0  0  0  0  0  0  0  0  0
    0.9794   -0.2783   -7.8298 O   0  0  0  0  0  0  0  0  0  0  0  0
    1.3759   -3.7439   -5.9148 C   0  0  0  0  0  0  0  0  0  0  0  0
    2.0935   -4.4382   -6.6255 O   0  0  0  0  0  0  0  0  0  0  0  0
    0.6335    5.8103    3.1791 H   0  0  0  0  0  0  0  0  0  0  0  0
   -1.0435    5.4795    2.7229 H   0  0  0  0  0  0  0  0  0  0  0  0
   -2.1102    3.6129    3.8226 H   0  0  0  0  0  0  0  0  0  0  0  0
   -0.1343    0.4981    7.6637 H   0  0  0  0  0  0  0  0  0  0  0  0
    1.7980   -0.7992    8.5565 H   0  0  0  0  0  0  0  0  0  0  0  0
    1.2751   -3.7325    5.4418 H   0  0  0  0  0  0  0  0  0  0  0  0
   -4.7287   -0.0916    5.1883 H   0  0  0  0  0  0  0  0  0  0  0  0
    1.2901   -0.1912    4.6767 H   0  0  0  0  0  0  0  0  0  0  0  0
    3.6476    0.2906    4.3933 H   0  0  0  0  0  0  0  0  0  0  0  0
    4.4189    2.5527    3.6906 H   0  0  0  0  0  0  0  0  0  0  0  0
    2.7306    4.3471    3.2438 H   0  0  0  0  0  0  0  0  0  0  0  0
   -1.2705    3.6004    0.9709 H   0  0  0  0  0  0  0  0  0  0  0  0
    0.8452    2.3759   -0.1692 H   0  0  0  0  0  0  0  0  0  0  0  0
    0.6805    3.7835   -1.2315 H   0  0  0  0  0  0  0  0  0  0  0  0
   -0.6007    1.6396   -1.9809 H   0  0  0  0  0  0  0  0  0  0  0  0
   -1.5076    3.1603   -1.9521 H   0  0  0  0  0  0  0  0  0  0  0  0
   -2.2718    0.6118    1.2473 H   0  0  0  0  0  0  0  0  0  0  0  0
   -0.5748    0.8922    0.8519 H   0  0  0  0  0  0  0  0  0  0  0  0
   -1.1250   -1.3550    0.1731 H   0  0  0  0  0  0  0  0  0  0  0  0
   -0.9590   -0.4480   -1.3351 H   0  0  0  0  0  0  0  0  0  0  0  0
   -4.5276   -0.1052   -1.8001 H   0  0  0  0  0  0  0  0  0  0  0  0
   -2.9424    0.5051   -2.3130 H   0  0  0  0  0  0  0  0  0  0  0  0
   -3.8705   -2.4039   -2.5846 H   0  0  0  0  0  0  0  0  0  0  0  0
   -4.0364   -1.2104   -3.8894 H   0  0  0  0  0  0  0  0  0  0  0  0
   -1.3719   -1.0083   -3.4089 H   0  0  0  0  0  0  0  0  0  0  0  0
   -3.3697   -4.1411   -3.7803 H   0  0  0  0  0  0  0  0  0  0  0  0
   -2.5098   -6.1300   -4.9780 H   0  0  0  0  0  0  0  0  0  0  0  0
   -0.2335   -6.0810   -6.0451 H   0  0  0  0  0  0  0  0  0  0  0  0
    2.7024   -2.1505   -7.3981 H   0  0  0  0  0  0  0  0  0  0  0  0
    4.5996   -0.9789   -6.6533 H   0  0  0  0  0  0  0  0  0  0  0  0
    4.3142   -2.2051   -5.4108 H   0  0  0  0  0  0  0  0  0  0  0  0
    3.2574   -0.5046   -3.9295 H   0  0  0  0  0  0  0  0  0  0  0  0
    4.8105    0.1173   -4.4606 H   0  0  0  0  0  0  0  0  0  0  0  0
    1.6793    1.7590   -6.6947 H   0  0  0  0  0  0  0  0  0  0  0  0
  1  2  2  0  0  0  0
  2  3  1  0  0  0  0
  2 28  1  0  0  0  0
  3  4  1  0  0  0  0
  3 57  1  0  0  0  0
  3 58  1  0  0  0  0
  4  5  1  0  0  0  0
  4 27  1  0  0  0  0
  5  6  2  0  0  0  0
  5 59  1  0  0  0  0
  6  7  1  0  0  0  0
  6 22  1  0  0  0  0
  7  8  2  0  0  0  0
  7 20  1  0  0  0  0
  8  9  1  0  0  0  0
  8 17  1  0  0  0  0
  9 10  2  0  0  0  0
  9 15  1  0  0  0  0
 10 11  1  0  0  0  0
 10 60  1  0  0  0  0
 11 12  2  0  0  0  0
 11 61  1  0  0  0  0
 12 13  1  0  0  0  0
 12 14  1  0  0  0  0
 14 15  2  0  0  0  0
 14 62  1  0  0  0  0
 15 16  1  0  0  0  0
 17 18  2  0  0  0  0
 17 19  1  0  0  0  0
 19 20  1  0  0  0  0
 19 63  1  0  0  0  0
 20 21  2  0  0  0  0
 22 23  2  0  0  0  0
 22 27  1  0  0  0  0
 23 24  1  0  0  0  0
 23 64  1  0  0  0  0
 24 25  2  0  0  0  0
 24 65  1  0  0  0  0
 25 26  1  0  0  0  0
 25 66  1  0  0  0  0
 26 27  2  0  0  0  0
 26 67  1  0  0  0  0
 28 29  1  0  0  0  0
 28 68  1  0  0  0  0
 29 30  1  0  0  0  0
 29 69  1  0  0  0  0
 29 70  1  0  0  0  0
 30 31  1  0  0  0  0
 30 71  1  0  0  0  0
 30 72  1  0  0  0  0
 31 32  1  0  0  0  0
 32 33  1  0  0  0  0
 32 73  1  0  0  0  0
 32 74  1  0  0  0  0
 33 34  1  0  0  0  0
 33 75  1  0  0  0  0
 33 76  1  0  0  0  0
 34 35  1  0  0  0  0
 35 36  1  0  0  0  0
 35 77  1  0  0  0  0
 35 78  1  0  0  0  0
 36 37  1  0  0  0  0
 36 79  1  0  0  0  0
 36 80  1  0  0  0  0
 37 38  1  0  0  0  0
 37 81  1  0  0  0  0
 38 39  2  0  0  0  0
 38 43  1  0  0  0  0
 39 40  1  0  0  0  0
 39 82  1  0  0  0  0
 40 41  2  0  0  0  0
 40 83  1  0  0  0  0
 41 42  1  0  0  0  0
 41 84  1  0  0  0  0
 42 43  2  0  0  0  0
 42 55  1  0  0  0  0
 43 44  1  0  0  0  0
 44 45  2  0  0  0  0
 44 46  1  0  0  0  0
 46 47  1  0  0  0  0
 46 55  1  0  0  0  0
 47 48  1  0  0  0  0
 47 53  1  0  0  0  0
 47 85  1  0  0  0  0
 48 49  1  0  0  0  0
 48 86  1  0  0  0  0
 48 87  1  0  0  0  0
 49 50  1  0  0  0  0
 49 88  1  0  0  0  0
 49 89  1  0  0  0  0
 50 51  2  0  0  0  0
 50 52  1  0  0  0  0
 52 53  1  0  0  0  0
 52 90  1  0  0  0  0
 53 54  2  0  0  0  0
 55 56  2  0  0  0  0
M  END
$$$$
protac3895RUN2
  chem.cr 07102519423D
protac3895RUN2
 90 96  0  0  0  0  0  0  0  0999 V2000
   -0.0745    5.3404    2.2482 O   0  0  0  0  0  0  0  0  0  0  0  0
   -0.7065    4.4534    2.8073 C   0  0  0  0  0  0  0  0  0  0  0  0
   -1.2996    4.6199    4.1863 C   0  0  0  0  0  0  0  0  0  0  0  0
   -1.1261    3.4536    5.0681 N   0  0  0  0  0  0  0  0  0  0  0  0
   -1.9806    2.3476    5.0184 C   0  0  0  0  0  0  0  0  0  0  0  0
   -1.4022    1.2731    5.5965 C   0  0  0  0  0  0  0  0  0  0  0  0
   -2.0194    0.0810    5.8661 C   0  0  0  0  0  0  0  0  0  0  0  0
   -1.6859   -0.9523    6.6833 C   0  0  0  0  0  0  0  0  0  0  0  0
   -0.6607   -1.0002    7.6130 C   0  0  0  0  0  0  0  0  0  0  0  0
   -0.5939   -0.0028    8.6079 C   0  0  0  0  0  0  0  0  0  0  0  0
    0.4102   -0.0372    9.5905 C   0  0  0  0  0  0  0  0  0  0  0  0
    1.3503   -1.0795    9.5948 C   0  0  0  0  0  0  0  0  0  0  0  0
    2.6098   -1.1231   10.8201 Cl  0  0  0  0  0  0  0  0  0  0  0  0
    1.2880   -2.0867    8.6200 C   0  0  0  0  0  0  0  0  0  0  0  0
    0.2875   -2.0542    7.6325 C   0  0  0  0  0  0  0  0  0  0  0  0
    0.2955   -3.3090    6.3917 Cl  0  0  0  0  0  0  0  0  0  0  0  0
   -2.6315   -1.8998    6.6686 C   0  0  0  0  0  0  0  0  0  0  0  0
   -2.8105   -2.9239    7.3150 O   0  0  0  0  0  0  0  0  0  0  0  0
   -3.6154   -1.5258    5.7724 N   0  0  0  0  0  0  0  0  0  0  0  0
   -3.2253   -0.2609    5.3482 C   0  0  0  0  0  0  0  0  0  0  0  0
   -4.0043    0.3067    4.5902 O   0  0  0  0  0  0  0  0  0  0  0  0
   -0.0866    1.6761    5.8900 C   0  0  0  0  0  0  0  0  0  0  0  0
    1.0854    0.9361    6.1444 C   0  0  0  0  0  0  0  0  0  0  0  0
    2.3126    1.6102    6.3219 C   0  0  0  0  0  0  0  0  0  0  0  0
    2.4005    3.0080    6.1516 C   0  0  0  0  0  0  0  0  0  0  0  0
    1.2666    3.7339    5.7452 C   0  0  0  0  0  0  0  0  0  0  0  0
    0.0580    3.0379    5.6072 C   0  0  0  0  0  0  0  0  0  0  0  0
   -1.1814    3.3804    2.0360 N   0  0  0  0  0  0  0  0  0  0  0  0
   -1.0972    3.3654    0.5682 C   0  0  0  0  0  0  0  0  0  0  0  0
   -1.9146    2.2174   -0.0719 C   0  0  0  0  0  0  0  0  0  0  0  0
   -1.4796    0.9242    0.4046 O   0  0  0  0  0  0  0  0  0  0  0  0
   -0.0867    0.5534    0.2719 C   0  0  0  0  0  0  0  0  0  0  0  0
    0.4162    0.6104   -1.2003 C   0  0  0  0  0  0  0  0  0  0  0  0
    0.0733   -0.5987   -1.9013 O   0  0  0  0  0  0  0  0  0  0  0  0
   -1.2922   -0.7419   -2.3158 C   0  0  0  0  0  0  0  0  0  0  0  0
   -1.4061   -2.0827   -3.0691 C   0  0  0  0  0  0  0  0  0  0  0  0
   -0.5784   -2.0794   -4.2877 N   0  0  0  0  0  0  0  0  0  0  0  0
   -0.6774   -3.0011   -5.3265 C   0  0  0  0  0  0  0  0  0  0  0  0
   -1.4720   -4.1717   -5.2370 C   0  0  0  0  0  0  0  0  0  0  0  0
   -1.5632   -5.0821   -6.3198 C   0  0  0  0  0  0  0  0  0  0  0  0
   -0.8629   -4.8418   -7.5183 C   0  0  0  0  0  0  0  0  0  0  0  0
   -0.0767   -3.6880   -7.5932 C   0  0  0  0  0  0  0  0  0  0  0  0
    0.0162   -2.7912   -6.5288 C   0  0  0  0  0  0  0  0  0  0  0  0
    0.8384   -1.7551   -6.9143 C   0  0  0  0  0  0  0  0  0  0  0  0
    1.4774   -1.0191   -6.1715 O   0  0  0  0  0  0  0  0  0  0  0  0
    1.2686   -2.0014   -8.2311 N   0  0  0  0  0  0  0  0  0  0  0  0
    1.7478   -0.9820   -9.1937 C   0  0  0  0  0  0  0  0  0  0  0  0
    3.2517   -1.1682   -9.4908 C   0  0  0  0  0  0  0  0  0  0  0  0
    4.0897   -0.6420   -8.3058 C   0  0  0  0  0  0  0  0  0  0  0  0
    3.7323    0.7848   -7.9522 C   0  0  0  0  0  0  0  0  0  0  0  0
    4.5452    1.5997   -7.5413 O   0  0  0  0  0  0  0  0  0  0  0  0
    2.4379    1.2510   -8.2102 N   0  0  0  0  0  0  0  0  0  0  0  0
    1.4305    0.4469   -8.7649 C   0  0  0  0  0  0  0  0  0  0  0  0
    0.3591    0.9926   -8.9906 O   0  0  0  0  0  0  0  0  0  0  0  0
    0.6923   -3.2124   -8.6268 C   0  0  0  0  0  0  0  0  0  0  0  0
    0.7961   -3.6568   -9.7653 O   0  0  0  0  0  0  0  0  0  0  0  0
   -0.8306    5.4882    4.6625 H   0  0  0  0  0  0  0  0  0  0  0  0
   -2.3678    4.8433    4.0892 H   0  0  0  0  0  0  0  0  0  0  0  0
   -2.9965    2.4873    4.6562 H   0  0  0  0  0  0  0  0  0  0  0  0
   -1.3218    0.8049    8.6125 H   0  0  0  0  0  0  0  0  0  0  0  0
    0.4579    0.7407   10.3477 H   0  0  0  0  0  0  0  0  0  0  0  0
    2.0179   -2.8919    8.6249 H   0  0  0  0  0  0  0  0  0  0  0  0
   -4.5755   -1.8244    5.8339 H   0  0  0  0  0  0  0  0  0  0  0  0
    1.0822   -0.1428    6.1533 H   0  0  0  0  0  0  0  0  0  0  0  0
    3.2068    1.0392    6.5565 H   0  0  0  0  0  0  0  0  0  0  0  0
    3.3574    3.5112    6.2725 H   0  0  0  0  0  0  0  0  0  0  0  0
    1.3385    4.7933    5.5186 H   0  0  0  0  0  0  0  0  0  0  0  0
   -1.4805    2.5375    2.5136 H   0  0  0  0  0  0  0  0  0  0  0  0
   -0.0429    3.3027    0.2685 H   0  0  0  0  0  0  0  0  0  0  0  0
   -1.4789    4.3227    0.1877 H   0  0  0  0  0  0  0  0  0  0  0  0
   -1.8424    2.2744   -1.1651 H   0  0  0  0  0  0  0  0  0  0  0  0
   -2.9737    2.3576    0.1808 H   0  0  0  0  0  0  0  0  0  0  0  0
    0.0582   -0.4668    0.6498 H   0  0  0  0  0  0  0  0  0  0  0  0
    0.5398    1.2063    0.8917 H   0  0  0  0  0  0  0  0  0  0  0  0
    1.5102    0.6949   -1.1719 H   0  0  0  0  0  0  0  0  0  0  0  0
    0.0460    1.4963   -1.7284 H   0  0  0  0  0  0  0  0  0  0  0  0
   -1.9650   -0.7540   -1.4488 H   0  0  0  0  0  0  0  0  0  0  0  0
   -1.5901    0.0835   -2.9766 H   0  0  0  0  0  0  0  0  0  0  0  0
   -1.0839   -2.8948   -2.4038 H   0  0  0  0  0  0  0  0  0  0  0  0
   -2.4571   -2.2541   -3.3349 H   0  0  0  0  0  0  0  0  0  0  0  0
    0.1110   -1.3404   -4.3957 H   0  0  0  0  0  0  0  0  0  0  0  0
   -2.0215   -4.3896   -4.3268 H   0  0  0  0  0  0  0  0  0  0  0  0
   -2.1776   -5.9736   -6.2273 H   0  0  0  0  0  0  0  0  0  0  0  0
   -0.9267   -5.5262   -8.3605 H   0  0  0  0  0  0  0  0  0  0  0  0
    1.2006   -1.1461  -10.1330 H   0  0  0  0  0  0  0  0  0  0  0  0
    3.5137   -0.6073  -10.3980 H   0  0  0  0  0  0  0  0  0  0  0  0
    3.4751   -2.2243   -9.6887 H   0  0  0  0  0  0  0  0  0  0  0  0
    3.9278   -1.2742   -7.4236 H   0  0  0  0  0  0  0  0  0  0  0  0
    5.1586   -0.7011   -8.5440 H   0  0  0  0  0  0  0  0  0  0  0  0
    2.2070    2.1979   -7.9485 H   0  0  0  0  0  0  0  0  0  0  0  0
  1  2  2  0  0  0  0
  2  3  1  0  0  0  0
  2 28  1  0  0  0  0
  3  4  1  0  0  0  0
  3 57  1  0  0  0  0
  3 58  1  0  0  0  0
  4  5  1  0  0  0  0
  4 27  1  0  0  0  0
  5  6  2  0  0  0  0
  5 59  1  0  0  0  0
  6  7  1  0  0  0  0
  6 22  1  0  0  0  0
  7  8  2  0  0  0  0
  7 20  1  0  0  0  0
  8  9  1  0  0  0  0
  8 17  1  0  0  0  0
  9 10  2  0  0  0  0
  9 15  1  0  0  0  0
 10 11  1  0  0  0  0
 10 60  1  0  0  0  0
 11 12  2  0  0  0  0
 11 61  1  0  0  0  0
 12 13  1  0  0  0  0
 12 14  1  0  0  0  0
 14 15  2  0  0  0  0
 14 62  1  0  0  0  0
 15 16  1  0  0  0  0
 17 18  2  0  0  0  0
 17 19  1  0  0  0  0
 19 20  1  0  0  0  0
 19 63  1  0  0  0  0
 20 21  2  0  0  0  0
 22 23  2  0  0  0  0
 22 27  1  0  0  0  0
 23 24  1  0  0  0  0
 23 64  1  0  0  0  0
 24 25  2  0  0  0  0
 24 65  1  0  0  0  0
 25 26  1  0  0  0  0
 25 66  1  0  0  0  0
 26 27  2  0  0  0  0
 26 67  1  0  0  0  0
 28 29  1  0  0  0  0
 28 68  1  0  0  0  0
 29 30  1  0  0  0  0
 29 69  1  0  0  0  0
 29 70  1  0  0  0  0
 30 31  1  0  0  0  0
 30 71  1  0  0  0  0
 30 72  1  0  0  0  0
 31 32  1  0  0  0  0
 32 33  1  0  0  0  0
 32 73  1  0  0  0  0
 32 74  1  0  0  0  0
 33 34  1  0  0  0  0
 33 75  1  0  0  0  0
 33 76  1  0  0  0  0
 34 35  1  0  0  0  0
 35 36  1  0  0  0  0
 35 77  1  0  0  0  0
 35 78  1  0  0  0  0
 36 37  1  0  0  0  0
 36 79  1  0  0  0  0
 36 80  1  0  0  0  0
 37 38  1  0  0  0  0
 37 81  1  0  0  0  0
 38 39  2  0  0  0  0
 38 43  1  0  0  0  0
 39 40  1  0  0  0  0
 39 82  1  0  0  0  0
 40 41  2  0  0  0  0
 40 83  1  0  0  0  0
 41 42  1  0  0  0  0
 41 84  1  0  0  0  0
 42 43  2  0  0  0  0
 42 55  1  0  0  0  0
 43 44  1  0  0  0  0
 44 45  2  0  0  0  0
 44 46  1  0  0  0  0
 46 47  1  0  0  0  0
 46 55  1  0  0  0  0
 47 48  1  0  0  0  0
 47 53  1  0  0  0  0
 47 85  1  0  0  0  0
 48 49  1  0  0  0  0
 48 86  1  0  0  0  0
 48 87  1  0  0  0  0
 49 50  1  0  0  0  0
 49 88  1  0  0  0  0
 49 89  1  0  0  0  0
 50 51  2  0  0  0  0
 50 52  1  0  0  0  0
 52 53  1  0  0  0  0
 52 90  1  0  0  0  0
 53 54  2  0  0  0  0
 55 56  2  0  0  0  0
M  END
$$$$
protac3895RUN2
  chem.cr 07102519423D
protac3895RUN2
 90 96  0  0  0  0  0  0  0  0999 V2000
   -1.2395    4.0911    3.1769 O   0  0  0  0  0  0  0  0  0  0  0  0
   -1.4802    2.9874    3.6456 C   0  0  0  0  0  0  0  0  0  0  0  0
   -2.4706    2.7633    4.7671 C   0  0  0  0  0  0  0  0  0  0  0  0
   -2.0246    1.8050    5.7962 N   0  0  0  0  0  0  0  0  0  0  0  0
   -2.6718    0.6054    6.0946 C   0  0  0  0  0  0  0  0  0  0  0  0
   -2.2257    0.0941    7.2686 C   0  0  0  0  0  0  0  0  0  0  0  0
   -2.7699   -0.9928    7.9153 C   0  0  0  0  0  0  0  0  0  0  0  0
   -2.6115   -1.5113    9.1649 C   0  0  0  0  0  0  0  0  0  0  0  0
   -1.8893   -1.0109   10.2315 C   0  0  0  0  0  0  0  0  0  0  0  0
   -2.2558    0.2263   10.7983 C   0  0  0  0  0  0  0  0  0  0  0  0
   -1.5754    0.7244   11.9239 C   0  0  0  0  0  0  0  0  0  0  0  0
   -0.5214   -0.0095   12.4896 C   0  0  0  0  0  0  0  0  0  0  0  0
    0.3498    0.6268   13.8781 Cl  0  0  0  0  0  0  0  0  0  0  0  0
   -0.1606   -1.2528   11.9489 C   0  0  0  0  0  0  0  0  0  0  0  0
   -0.8458   -1.7609   10.8314 C   0  0  0  0  0  0  0  0  0  0  0  0
   -0.3337   -3.3154   10.1677 Cl  0  0  0  0  0  0  0  0  0  0  0  0
   -3.4088   -2.5689    9.3576 C   0  0  0  0  0  0  0  0  0  0  0  0
   -3.6564   -3.2719   10.3271 O   0  0  0  0  0  0  0  0  0  0  0  0
   -4.0964   -2.8210    8.1900 N   0  0  0  0  0  0  0  0  0  0  0  0
   -3.7119   -1.7897    7.3432 C   0  0  0  0  0  0  0  0  0  0  0  0
   -4.2736   -1.7834    6.2539 O   0  0  0  0  0  0  0  0  0  0  0  0
   -1.1789    0.9598    7.6625 C   0  0  0  0  0  0  0  0  0  0  0  0
   -0.1218    0.8299    8.5871 C   0  0  0  0  0  0  0  0  0  0  0  0
    0.8243    1.8702    8.7246 C   0  0  0  0  0  0  0  0  0  0  0  0
    0.7772    3.0083    7.8925 C   0  0  0  0  0  0  0  0  0  0  0  0
   -0.1891    3.0886    6.8773 C   0  0  0  0  0  0  0  0  0  0  0  0
   -1.1185    2.0471    6.7809 C   0  0  0  0  0  0  0  0  0  0  0  0
   -0.9139    1.8490    3.0484 N   0  0  0  0  0  0  0  0  0  0  0  0
   -0.1699    1.8811    1.7745 C   0  0  0  0  0  0  0  0  0  0  0  0
   -1.0885    2.2009    0.5724 C   0  0  0  0  0  0  0  0  0  0  0  0
   -0.4755    1.7785   -0.6610 O   0  0  0  0  0  0  0  0  0  0  0  0
    0.7775    2.3902   -1.0128 C   0  0  0  0  0  0  0  0  0  0  0  0
    0.9473    2.2863   -2.5427 C   0  0  0  0  0  0  0  0  0  0  0  0
    1.1614    0.9164   -2.9123 O   0  0  0  0  0  0  0  0  0  0  0  0
    1.2453    0.7038   -4.3284 C   0  0  0  0  0  0  0  0  0  0  0  0
    1.4350   -0.8001   -4.5723 C   0  0  0  0  0  0  0  0  0  0  0  0
    1.4772   -1.0714   -6.0239 N   0  0  0  0  0  0  0  0  0  0  0  0
    0.6951   -1.9838   -6.7314 C   0  0  0  0  0  0  0  0  0  0  0  0
   -0.2679   -2.8284   -6.1213 C   0  0  0  0  0  0  0  0  0  0  0  0
   -1.0235   -3.7531   -6.8826 C   0  0  0  0  0  0  0  0  0  0  0  0
   -0.8382   -3.8570   -8.2738 C   0  0  0  0  0  0  0  0  0  0  0  0
    0.1064   -3.0165   -8.8690 C   0  0  0  0  0  0  0  0  0  0  0  0
    0.8504   -2.1003   -8.1231 C   0  0  0  0  0  0  0  0  0  0  0  0
    1.6804   -1.4271   -8.9950 C   0  0  0  0  0  0  0  0  0  0  0  0
    2.6197   -0.6909   -8.7156 O   0  0  0  0  0  0  0  0  0  0  0  0
    1.4859   -1.9487  -10.2858 N   0  0  0  0  0  0  0  0  0  0  0  0
    1.8914   -1.3354  -11.5688 C   0  0  0  0  0  0  0  0  0  0  0  0
    3.2247   -1.9328  -12.0743 C   0  0  0  0  0  0  0  0  0  0  0  0
    4.4268   -1.2077  -11.4329 C   0  0  0  0  0  0  0  0  0  0  0  0
    4.3453    0.2875  -11.6419 C   0  0  0  0  0  0  0  0  0  0  0  0
    5.3160    0.9901  -11.8809 O   0  0  0  0  0  0  0  0  0  0  0  0
    3.0874    0.8999  -11.6722 N   0  0  0  0  0  0  0  0  0  0  0  0
    1.8868    0.1894  -11.5288 C   0  0  0  0  0  0  0  0  0  0  0  0
    0.8607    0.8528  -11.5844 O   0  0  0  0  0  0  0  0  0  0  0  0
    0.4847   -2.9167  -10.1850 C   0  0  0  0  0  0  0  0  0  0  0  0
    0.1764   -3.6435  -11.1230 O   0  0  0  0  0  0  0  0  0  0  0  0
   -2.6548    3.7258    5.2572 H   0  0  0  0  0  0  0  0  0  0  0  0
   -3.4223    2.4311    4.3395 H   0  0  0  0  0  0  0  0  0  0  0  0
   -3.4830    0.2850    5.4473 H   0  0  0  0  0  0  0  0  0  0  0  0
   -3.0699    0.7990   10.3636 H   0  0  0  0  0  0  0  0  0  0  0  0
   -1.8626    1.6785   12.3562 H   0  0  0  0  0  0  0  0  0  0  0  0
    0.6502   -1.8250   12.3917 H   0  0  0  0  0  0  0  0  0  0  0  0
   -4.9913   -3.2830    8.1485 H   0  0  0  0  0  0  0  0  0  0  0  0
    0.0291   -0.0667    9.1615 H   0  0  0  0  0  0  0  0  0  0  0  0
    1.6208    1.7762    9.4590 H   0  0  0  0  0  0  0  0  0  0  0  0
    1.5211    3.7930    7.9987 H   0  0  0  0  0  0  0  0  0  0  0  0
   -0.1903    3.9154    6.1712 H   0  0  0  0  0  0  0  0  0  0  0  0
   -0.9565    0.9798    3.5677 H   0  0  0  0  0  0  0  0  0  0  0  0
    0.3098    0.9061    1.6139 H   0  0  0  0  0  0  0  0  0  0  0  0
    0.6177    2.6437    1.8422 H   0  0  0  0  0  0  0  0  0  0  0  0
   -1.3106    3.2769    0.5506 H   0  0  0  0  0  0  0  0  0  0  0  0
   -2.0412    1.6703    0.6984 H   0  0  0  0  0  0  0  0  0  0  0  0
    1.6184    1.8979   -0.5061 H   0  0  0  0  0  0  0  0  0  0  0  0
    0.7759    3.4531   -0.7390 H   0  0  0  0  0  0  0  0  0  0  0  0
    1.8058    2.8961   -2.8518 H   0  0  0  0  0  0  0  0  0  0  0  0
    0.0486    2.6839   -3.0320 H   0  0  0  0  0  0  0  0  0  0  0  0
    0.3209    1.0333   -4.8222 H   0  0  0  0  0  0  0  0  0  0  0  0
    2.0885    1.2597   -4.7584 H   0  0  0  0  0  0  0  0  0  0  0  0
    2.3741   -1.1279   -4.1057 H   0  0  0  0  0  0  0  0  0  0  0  0
    0.6165   -1.3289   -4.0746 H   0  0  0  0  0  0  0  0  0  0  0  0
    2.1409   -0.5458   -6.5855 H   0  0  0  0  0  0  0  0  0  0  0  0
   -0.4475   -2.7900   -5.0544 H   0  0  0  0  0  0  0  0  0  0  0  0
   -1.7508   -4.3922   -6.3898 H   0  0  0  0  0  0  0  0  0  0  0  0
   -1.4081   -4.5630   -8.8735 H   0  0  0  0  0  0  0  0  0  0  0  0
    1.1218   -1.6096  -12.3024 H   0  0  0  0  0  0  0  0  0  0  0  0
    3.2764   -1.8176  -13.1662 H   0  0  0  0  0  0  0  0  0  0  0  0
    3.2597   -3.0116  -11.8652 H   0  0  0  0  0  0  0  0  0  0  0  0
    4.4649   -1.4145  -10.3565 H   0  0  0  0  0  0  0  0  0  0  0  0
    5.3661   -1.5839  -11.8561 H   0  0  0  0  0  0  0  0  0  0  0  0
    3.0432    1.9017  -11.7751 H   0  0  0  0  0  0  0  0  0  0  0  0
  1  2  2  0  0  0  0
  2  3  1  0  0  0  0
  2 28  1  0  0  0  0
  3  4  1  0  0  0  0
  3 57  1  0  0  0  0
  3 58  1  0  0  0  0
  4  5  1  0  0  0  0
  4 27  1  0  0  0  0
  5  6  2  0  0  0  0
  5 59  1  0  0  0  0
  6  7  1  0  0  0  0
  6 22  1  0  0  0  0
  7  8  2  0  0  0  0
  7 20  1  0  0  0  0
  8  9  1  0  0  0  0
  8 17  1  0  0  0  0
  9 10  2  0  0  0  0
  9 15  1  0  0  0  0
 10 11  1  0  0  0  0
 10 60  1  0  0  0  0
 11 12  2  0  0  0  0
 11 61  1  0  0  0  0
 12 13  1  0  0  0  0
 12 14  1  0  0  0  0
 14 15  2  0  0  0  0
 14 62  1  0  0  0  0
 15 16  1  0  0  0  0
 17 18  2  0  0  0  0
 17 19  1  0  0  0  0
 19 20  1  0  0  0  0
 19 63  1  0  0  0  0
 20 21  2  0  0  0  0
 22 23  2  0  0  0  0
 22 27  1  0  0  0  0
 23 24  1  0  0  0  0
 23 64  1  0  0  0  0
 24 25  2  0  0  0  0
 24 65  1  0  0  0  0
 25 26  1  0  0  0  0
 25 66  1  0  0  0  0
 26 27  2  0  0  0  0
 26 67  1  0  0  0  0
 28 29  1  0  0  0  0
 28 68  1  0  0  0  0
 29 30  1  0  0  0  0
 29 69  1  0  0  0  0
 29 70  1  0  0  0  0
 30 31  1  0  0  0  0
 30 71  1  0  0  0  0
 30 72  1  0  0  0  0
 31 32  1  0  0  0  0
 32 33  1  0  0  0  0
 32 73  1  0  0  0  0
 32 74  1  0  0  0  0
 33 34  1  0  0  0  0
 33 75  1  0  0  0  0
 33 76  1  0  0  0  0
 34 35  1  0  0  0  0
 35 36  1  0  0  0  0
 35 77  1  0  0  0  0
 35 78  1  0  0  0  0
 36 37  1  0  0  0  0
 36 79  1  0  0  0  0
 36 80  1  0  0  0  0
 37 38  1  0  0  0  0
 37 81  1  0  0  0  0
 38 39  2  0  0  0  0
 38 43  1  0  0  0  0
 39 40  1  0  0  0  0
 39 82  1  0  0  0  0
 40 41  2  0  0  0  0
 40 83  1  0  0  0  0
 41 42  1  0  0  0  0
 41 84  1  0  0  0  0
 42 43  2  0  0  0  0
 42 55  1  0  0  0  0
 43 44  1  0  0  0  0
 44 45  2  0  0  0  0
 44 46  1  0  0  0  0
 46 47  1  0  0  0  0
 46 55  1  0  0  0  0
 47 48  1  0  0  0  0
 47 53  1  0  0  0  0
 47 85  1  0  0  0  0
 48 49  1  0  0  0  0
 48 86  1  0  0  0  0
 48 87  1  0  0  0  0
 49 50  1  0  0  0  0
 49 88  1  0  0  0  0
 49 89  1  0  0  0  0
 50 51  2  0  0  0  0
 50 52  1  0  0  0  0
 52 53  1  0  0  0  0
 52 90  1  0  0  0  0
 53 54  2  0  0  0  0
 55 56  2  0  0  0  0
M  END
$$$$
protac3895RUN2
  chem.cr 07102519423D
protac3895RUN2
 90 96  0  0  0  0  0  0  0  0999 V2000
   -1.8086    0.3643    2.4164 O   0  0  0  0  0  0  0  0  0  0  0  0
   -2.7924    0.1314    3.1049 C   0  0  0  0  0  0  0  0  0  0  0  0
   -2.7244   -0.6550    4.3931 C   0  0  0  0  0  0  0  0  0  0  0  0
   -2.9133   -2.1141    4.2703 N   0  0  0  0  0  0  0  0  0  0  0  0
   -2.3205   -2.7890    3.1875 C   0  0  0  0  0  0  0  0  0  0  0  0
   -1.6751   -3.9041    3.5966 C   0  0  0  0  0  0  0  0  0  0  0  0
   -0.8253   -4.6884    2.8664 C   0  0  0  0  0  0  0  0  0  0  0  0
   -0.6892   -4.6836    1.5191 C   0  0  0  0  0  0  0  0  0  0  0  0
   -1.4760   -3.9859    0.6219 C   0  0  0  0  0  0  0  0  0  0  0  0
   -0.9717   -2.8358   -0.0137 C   0  0  0  0  0  0  0  0  0  0  0  0
   -1.7788   -2.1065   -0.9037 C   0  0  0  0  0  0  0  0  0  0  0  0
   -3.0880   -2.5354   -1.1789 C   0  0  0  0  0  0  0  0  0  0  0  0
   -4.1017   -1.6137   -2.2831 Cl  0  0  0  0  0  0  0  0  0  0  0  0
   -3.5908   -3.6954   -0.5667 C   0  0  0  0  0  0  0  0  0  0  0  0
   -2.7914   -4.4179    0.3341 C   0  0  0  0  0  0  0  0  0  0  0  0
   -3.4640   -5.8604    1.0937 Cl  0  0  0  0  0  0  0  0  0  0  0  0
    0.2718   -5.5137    1.1143 C   0  0  0  0  0  0  0  0  0  0  0  0
    0.7234   -5.8093    0.0158 O   0  0  0  0  0  0  0  0  0  0  0  0
    0.7966   -6.1379    2.2326 N   0  0  0  0  0  0  0  0  0  0  0  0
    0.1081   -5.5716    3.3051 C   0  0  0  0  0  0  0  0  0  0  0  0
    0.5381   -5.8843    4.4076 O   0  0  0  0  0  0  0  0  0  0  0  0
   -1.9948   -4.0348    4.9546 C   0  0  0  0  0  0  0  0  0  0  0  0
   -1.8995   -5.1343    5.8339 C   0  0  0  0  0  0  0  0  0  0  0  0
   -2.4122   -5.0177    7.1435 C   0  0  0  0  0  0  0  0  0  0  0  0
   -3.0811   -3.8464    7.5580 C   0  0  0  0  0  0  0  0  0  0  0  0
   -3.2783   -2.7937    6.6488 C   0  0  0  0  0  0  0  0  0  0  0  0
   -2.7364   -2.9247    5.3618 C   0  0  0  0  0  0  0  0  0  0  0  0
   -3.9069    0.9738    2.9741 N   0  0  0  0  0  0  0  0  0  0  0  0
   -3.7991    2.3915    2.5857 C   0  0  0  0  0  0  0  0  0  0  0  0
   -4.7982    2.7705    1.4720 C   0  0  0  0  0  0  0  0  0  0  0  0
   -4.5425    2.0000    0.2787 O   0  0  0  0  0  0  0  0  0  0  0  0
   -3.3017    2.2229   -0.4310 C   0  0  0  0  0  0  0  0  0  0  0  0
   -3.2410    3.6914   -0.9290 C   0  0  0  0  0  0  0  0  0  0  0  0
   -2.4818    3.7738   -2.1482 O   0  0  0  0  0  0  0  0  0  0  0  0
   -1.0749    3.5263   -2.0469 C   0  0  0  0  0  0  0  0  0  0  0  0
   -0.4749    3.8661   -3.4236 C   0  0  0  0  0  0  0  0  0  0  0  0
    0.9740    3.6274   -3.4334 N   0  0  0  0  0  0  0  0  0  0  0  0
    1.8077    3.8352   -4.5241 C   0  0  0  0  0  0  0  0  0  0  0  0
    1.4298    4.5940   -5.6571 C   0  0  0  0  0  0  0  0  0  0  0  0
    2.3144    4.7591   -6.7515 C   0  0  0  0  0  0  0  0  0  0  0  0
    3.6017    4.1807   -6.7278 C   0  0  0  0  0  0  0  0  0  0  0  0
    3.9655    3.4389   -5.5943 C   0  0  0  0  0  0  0  0  0  0  0  0
    3.0868    3.2727   -4.5252 C   0  0  0  0  0  0  0  0  0  0  0  0
    3.7062    2.4876   -3.5824 C   0  0  0  0  0  0  0  0  0  0  0  0
    3.2168    1.9721   -2.5846 O   0  0  0  0  0  0  0  0  0  0  0  0
    4.9710    2.1314   -4.0654 N   0  0  0  0  0  0  0  0  0  0  0  0
    6.0725    1.6042   -3.2342 C   0  0  0  0  0  0  0  0  0  0  0  0
    5.8764    0.0891   -2.9933 C   0  0  0  0  0  0  0  0  0  0  0  0
    6.8318   -0.4164   -1.8907 C   0  0  0  0  0  0  0  0  0  0  0  0
    6.6530    0.3778   -0.6215 C   0  0  0  0  0  0  0  0  0  0  0  0
    6.7971   -0.0894    0.4965 O   0  0  0  0  0  0  0  0  0  0  0  0
    6.4778    1.7602   -0.7253 N   0  0  0  0  0  0  0  0  0  0  0  0
    6.2308    2.4108   -1.9445 C   0  0  0  0  0  0  0  0  0  0  0  0
    6.3113    3.6320   -1.9243 O   0  0  0  0  0  0  0  0  0  0  0  0
    5.1280    2.7603   -5.3060 C   0  0  0  0  0  0  0  0  0  0  0  0
    6.0659    2.5071   -6.0530 O   0  0  0  0  0  0  0  0  0  0  0  0
   -1.7345   -0.4883    4.8322 H   0  0  0  0  0  0  0  0  0  0  0  0
   -3.4632   -0.2672    5.1020 H   0  0  0  0  0  0  0  0  0  0  0  0
   -2.3125   -2.2943    2.2210 H   0  0  0  0  0  0  0  0  0  0  0  0
    0.0400   -2.4978    0.1987 H   0  0  0  0  0  0  0  0  0  0  0  0
   -1.3946   -1.2091   -1.3815 H   0  0  0  0  0  0  0  0  0  0  0  0
   -4.5994   -4.0348   -0.7876 H   0  0  0  0  0  0  0  0  0  0  0  0
    1.7457   -6.4679    2.2971 H   0  0  0  0  0  0  0  0  0  0  0  0
   -1.4938   -6.0878    5.5199 H   0  0  0  0  0  0  0  0  0  0  0  0
   -2.3151   -5.8540    7.8317 H   0  0  0  0  0  0  0  0  0  0  0  0
   -3.4881   -3.7824    8.5653 H   0  0  0  0  0  0  0  0  0  0  0  0
   -3.8593   -1.9210    6.9254 H   0  0  0  0  0  0  0  0  0  0  0  0
   -4.8239    0.5867    3.1564 H   0  0  0  0  0  0  0  0  0  0  0  0
   -2.7776    2.6190    2.2589 H   0  0  0  0  0  0  0  0  0  0  0  0
   -3.9960    3.0136    3.4685 H   0  0  0  0  0  0  0  0  0  0  0  0
   -4.7346    3.8466    1.2699 H   0  0  0  0  0  0  0  0  0  0  0  0
   -5.8161    2.5686    1.8294 H   0  0  0  0  0  0  0  0  0  0  0  0
   -3.2569    1.5547   -1.3002 H   0  0  0  0  0  0  0  0  0  0  0  0
   -2.4330    1.9956    0.2000 H   0  0  0  0  0  0  0  0  0  0  0  0
   -2.8113    4.3401   -0.1538 H   0  0  0  0  0  0  0  0  0  0  0  0
   -4.2635    4.0389   -1.1263 H   0  0  0  0  0  0  0  0  0  0  0  0
   -0.6173    4.1679   -1.2828 H   0  0  0  0  0  0  0  0  0  0  0  0
   -0.8776    2.4741   -1.7953 H   0  0  0  0  0  0  0  0  0  0  0  0
   -0.9559    3.2424   -4.1898 H   0  0  0  0  0  0  0  0  0  0  0  0
   -0.6859    4.9196   -3.6525 H   0  0  0  0  0  0  0  0  0  0  0  0
    1.3768    3.0784   -2.6802 H   0  0  0  0  0  0  0  0  0  0  0  0
    0.4526    5.0619   -5.6969 H   0  0  0  0  0  0  0  0  0  0  0  0
    1.9964    5.3328   -7.6182 H   0  0  0  0  0  0  0  0  0  0  0  0
    4.2931    4.3015   -7.5583 H   0  0  0  0  0  0  0  0  0  0  0  0
    7.0095    1.7334   -3.7915 H   0  0  0  0  0  0  0  0  0  0  0  0
    6.0310   -0.4635   -3.9299 H   0  0  0  0  0  0  0  0  0  0  0  0
    4.8393   -0.0992   -2.6794 H   0  0  0  0  0  0  0  0  0  0  0  0
    6.6385   -1.4766   -1.6811 H   0  0  0  0  0  0  0  0  0  0  0  0
    7.8762   -0.3378   -2.2163 H   0  0  0  0  0  0  0  0  0  0  0  0
    6.4921    2.3120    0.1181 H   0  0  0  0  0  0  0  0  0  0  0  0
  1  2  2  0  0  0  0
  2  3  1  0  0  0  0
  2 28  1  0  0  0  0
  3  4  1  0  0  0  0
  3 57  1  0  0  0  0
  3 58  1  0  0  0  0
  4  5  1  0  0  0  0
  4 27  1  0  0  0  0
  5  6  2  0  0  0  0
  5 59  1  0  0  0  0
  6  7  1  0  0  0  0
  6 22  1  0  0  0  0
  7  8  2  0  0  0  0
  7 20  1  0  0  0  0
  8  9  1  0  0  0  0
  8 17  1  0  0  0  0
  9 10  2  0  0  0  0
  9 15  1  0  0  0  0
 10 11  1  0  0  0  0
 10 60  1  0  0  0  0
 11 12  2  0  0  0  0
 11 61  1  0  0  0  0
 12 13  1  0  0  0  0
 12 14  1  0  0  0  0
 14 15  2  0  0  0  0
 14 62  1  0  0  0  0
 15 16  1  0  0  0  0
 17 18  2  0  0  0  0
 17 19  1  0  0  0  0
 19 20  1  0  0  0  0
 19 63  1  0  0  0  0
 20 21  2  0  0  0  0
 22 23  2  0  0  0  0
 22 27  1  0  0  0  0
 23 24  1  0  0  0  0
 23 64  1  0  0  0  0
 24 25  2  0  0  0  0
 24 65  1  0  0  0  0
 25 26  1  0  0  0  0
 25 66  1  0  0  0  0
 26 27  2  0  0  0  0
 26 67  1  0  0  0  0
 28 29  1  0  0  0  0
 28 68  1  0  0  0  0
 29 30  1  0  0  0  0
 29 69  1  0  0  0  0
 29 70  1  0  0  0  0
 30 31  1  0  0  0  0
 30 71  1  0  0  0  0
 30 72  1  0  0  0  0
 31 32  1  0  0  0  0
 32 33  1  0  0  0  0
 32 73  1  0  0  0  0
 32 74  1  0  0  0  0
 33 34  1  0  0  0  0
 33 75  1  0  0  0  0
 33 76  1  0  0  0  0
 34 35  1  0  0  0  0
 35 36  1  0  0  0  0
 35 77  1  0  0  0  0
 35 78  1  0  0  0  0
 36 37  1  0  0  0  0
 36 79  1  0  0  0  0
 36 80  1  0  0  0  0
 37 38  1  0  0  0  0
 37 81  1  0  0  0  0
 38 39  2  0  0  0  0
 38 43  1  0  0  0  0
 39 40  1  0  0  0  0
 39 82  1  0  0  0  0
 40 41  2  0  0  0  0
 40 83  1  0  0  0  0
 41 42  1  0  0  0  0
 41 84  1  0  0  0  0
 42 43  2  0  0  0  0
 42 55  1  0  0  0  0
 43 44  1  0  0  0  0
 44 45  2  0  0  0  0
 44 46  1  0  0  0  0
 46 47  1  0  0  0  0
 46 55  1  0  0  0  0
 47 48  1  0  0  0  0
 47 53  1  0  0  0  0
 47 85  1  0  0  0  0
 48 49  1  0  0  0  0
 48 86  1  0  0  0  0
 48 87  1  0  0  0  0
 49 50  1  0  0  0  0
 49 88  1  0  0  0  0
 49 89  1  0  0  0  0
 50 51  2  0  0  0  0
 50 52  1  0  0  0  0
 52 53  1  0  0  0  0
 52 90  1  0  0  0  0
 53 54  2  0  0  0  0
 55 56  2  0  0  0  0
M  END
$$$$
protac3895RUN2
  chem.cr 07102519423D
protac3895RUN2
 90 96  0  0  0  0  0  0  0  0999 V2000
   -4.4392    2.1705   -0.4476 O   0  0  0  0  0  0  0  0  0  0  0  0
   -3.7435    1.5337    0.3325 C   0  0  0  0  0  0  0  0  0  0  0  0
   -4.2912    0.5051    1.2954 C   0  0  0  0  0  0  0  0  0  0  0  0
   -3.9450   -0.8776    0.9080 N   0  0  0  0  0  0  0  0  0  0  0  0
   -4.5274   -1.3990   -0.2522 C   0  0  0  0  0  0  0  0  0  0  0  0
   -3.6383   -2.1017   -0.9905 C   0  0  0  0  0  0  0  0  0  0  0  0
   -3.8235   -2.6073   -2.2551 C   0  0  0  0  0  0  0  0  0  0  0  0
   -4.9988   -2.6668   -2.9329 C   0  0  0  0  0  0  0  0  0  0  0  0
   -6.2375   -2.2544   -2.4821 C   0  0  0  0  0  0  0  0  0  0  0  0
   -6.7177   -0.9855   -2.8599 C   0  0  0  0  0  0  0  0  0  0  0  0
   -7.9533   -0.5223   -2.3770 C   0  0  0  0  0  0  0  0  0  0  0  0
   -8.7191   -1.3315   -1.5233 C   0  0  0  0  0  0  0  0  0  0  0  0
  -10.2617   -0.7488   -0.9127 Cl  0  0  0  0  0  0  0  0  0  0  0  0
   -8.2564   -2.6050   -1.1559 C   0  0  0  0  0  0  0  0  0  0  0  0
   -7.0190   -3.0696   -1.6344 C   0  0  0  0  0  0  0  0  0  0  0  0
   -6.4556   -4.6671   -1.1447 Cl  0  0  0  0  0  0  0  0  0  0  0  0
   -4.8482   -3.1726   -4.1562 C   0  0  0  0  0  0  0  0  0  0  0  0
   -5.6180   -3.3725   -5.0866 O   0  0  0  0  0  0  0  0  0  0  0  0
   -3.5166   -3.4963   -4.3232 N   0  0  0  0  0  0  0  0  0  0  0  0
   -2.9074   -3.0847   -3.1396 C   0  0  0  0  0  0  0  0  0  0  0  0
   -1.6864   -3.1320   -3.1668 O   0  0  0  0  0  0  0  0  0  0  0  0
   -2.4675   -2.1266   -0.2060 C   0  0  0  0  0  0  0  0  0  0  0  0
   -1.2847   -2.8938   -0.2794 C   0  0  0  0  0  0  0  0  0  0  0  0
   -0.2784   -2.7211    0.6962 C   0  0  0  0  0  0  0  0  0  0  0  0
   -0.4687   -1.8505    1.7885 C   0  0  0  0  0  0  0  0  0  0  0  0
   -1.6920   -1.1773    1.9398 C   0  0  0  0  0  0  0  0  0  0  0  0
   -2.6615   -1.3473    0.9400 C   0  0  0  0  0  0  0  0  0  0  0  0
   -2.3444    1.6053    0.2463 N   0  0  0  0  0  0  0  0  0  0  0  0
   -1.6253    2.1533   -0.9109 C   0  0  0  0  0  0  0  0  0  0  0  0
   -1.0609    1.0226   -1.7852 C   0  0  0  0  0  0  0  0  0  0  0  0
   -0.1168    1.6250   -2.6745 O   0  0  0  0  0  0  0  0  0  0  0  0
    0.3892    0.7643   -3.7039 C   0  0  0  0  0  0  0  0  0  0  0  0
    1.5317    1.5190   -4.4248 C   0  0  0  0  0  0  0  0  0  0  0  0
    2.8093    1.1552   -3.8618 O   0  0  0  0  0  0  0  0  0  0  0  0
    3.0100    1.4505   -2.4713 C   0  0  0  0  0  0  0  0  0  0  0  0
    4.4722    1.1075   -2.1434 C   0  0  0  0  0  0  0  0  0  0  0  0
    4.6542    1.0683   -0.6859 N   0  0  0  0  0  0  0  0  0  0  0  0
    5.8252    1.3465    0.0084 C   0  0  0  0  0  0  0  0  0  0  0  0
    7.0697    1.5926   -0.6210 C   0  0  0  0  0  0  0  0  0  0  0  0
    8.2261    1.8917    0.1426 C   0  0  0  0  0  0  0  0  0  0  0  0
    8.1616    1.9551    1.5509 C   0  0  0  0  0  0  0  0  0  0  0  0
    6.9258    1.7032    2.1591 C   0  0  0  0  0  0  0  0  0  0  0  0
    5.7919    1.4020    1.4076 C   0  0  0  0  0  0  0  0  0  0  0  0
    4.7358    1.2133    2.2713 C   0  0  0  0  0  0  0  0  0  0  0  0
    3.7339    0.5414    2.0510 O   0  0  0  0  0  0  0  0  0  0  0  0
    5.2043    1.4014    3.5816 N   0  0  0  0  0  0  0  0  0  0  0  0
    4.3681    1.7692    4.7481 C   0  0  0  0  0  0  0  0  0  0  0  0
    4.2742    0.6003    5.7524 C   0  0  0  0  0  0  0  0  0  0  0  0
    3.3126   -0.4817    5.2140 C   0  0  0  0  0  0  0  0  0  0  0  0
    1.9634    0.0940    4.8378 C   0  0  0  0  0  0  0  0  0  0  0  0
    0.9173   -0.5316    4.9160 O   0  0  0  0  0  0  0  0  0  0  0  0
    1.8710    1.4362    4.4509 N   0  0  0  0  0  0  0  0  0  0  0  0
    2.9863    2.2830    4.3553 C   0  0  0  0  0  0  0  0  0  0  0  0
    2.7656    3.4420    4.0337 O   0  0  0  0  0  0  0  0  0  0  0  0
    6.5689    1.6996    3.4867 C   0  0  0  0  0  0  0  0  0  0  0  0
    7.2527    1.9886    4.4629 O   0  0  0  0  0  0  0  0  0  0  0  0
   -3.9116    0.7084    2.3024 H   0  0  0  0  0  0  0  0  0  0  0  0
   -5.3830    0.6013    1.3264 H   0  0  0  0  0  0  0  0  0  0  0  0
   -5.5415   -1.0881   -0.4781 H   0  0  0  0  0  0  0  0  0  0  0  0
   -6.1221   -0.3547   -3.5141 H   0  0  0  0  0  0  0  0  0  0  0  0
   -8.3158    0.4625   -2.6604 H   0  0  0  0  0  0  0  0  0  0  0  0
   -8.8550   -3.2300   -0.4990 H   0  0  0  0  0  0  0  0  0  0  0  0
   -3.0463   -3.5274   -5.2137 H   0  0  0  0  0  0  0  0  0  0  0  0
   -1.1354   -3.6591   -1.0245 H   0  0  0  0  0  0  0  0  0  0  0  0
    0.6432   -3.2930    0.6214 H   0  0  0  0  0  0  0  0  0  0  0  0
    0.3090   -1.7447    2.5420 H   0  0  0  0  0  0  0  0  0  0  0  0
   -1.8811   -0.5735    2.8228 H   0  0  0  0  0  0  0  0  0  0  0  0
   -1.8270    0.9609    0.8339 H   0  0  0  0  0  0  0  0  0  0  0  0
   -0.8004    2.7832   -0.5519 H   0  0  0  0  0  0  0  0  0  0  0  0
   -2.2905    2.7848   -1.5158 H   0  0  0  0  0  0  0  0  0  0  0  0
   -1.8789    0.5339   -2.3321 H   0  0  0  0  0  0  0  0  0  0  0  0
   -0.5677    0.2703   -1.1543 H   0  0  0  0  0  0  0  0  0  0  0  0
   -0.4050    0.5298   -4.4239 H   0  0  0  0  0  0  0  0  0  0  0  0
    0.7642   -0.1811   -3.2900 H   0  0  0  0  0  0  0  0  0  0  0  0
    1.3662    2.6023   -4.3552 H   0  0  0  0  0  0  0  0  0  0  0  0
    1.5154    1.2526   -5.4893 H   0  0  0  0  0  0  0  0  0  0  0  0
    2.8187    2.5114   -2.2588 H   0  0  0  0  0  0  0  0  0  0  0  0
    2.3414    0.8442   -1.8462 H   0  0  0  0  0  0  0  0  0  0  0  0
    4.7244    0.1292   -2.5752 H   0  0  0  0  0  0  0  0  0  0  0  0
    5.1172    1.8672   -2.6016 H   0  0  0  0  0  0  0  0  0  0  0  0
    3.8490    0.8385   -0.1111 H   0  0  0  0  0  0  0  0  0  0  0  0
    7.1517    1.5516   -1.7015 H   0  0  0  0  0  0  0  0  0  0  0  0
    9.1717    2.0772   -0.3602 H   0  0  0  0  0  0  0  0  0  0  0  0
    9.0385    2.1912    2.1495 H   0  0  0  0  0  0  0  0  0  0  0  0
    4.8736    2.6035    5.2549 H   0  0  0  0  0  0  0  0  0  0  0  0
    3.8953    0.9780    6.7116 H   0  0  0  0  0  0  0  0  0  0  0  0
    5.2716    0.1819    5.9413 H   0  0  0  0  0  0  0  0  0  0  0  0
    3.7511   -0.9600    4.3294 H   0  0  0  0  0  0  0  0  0  0  0  0
    3.1748   -1.2717    5.9628 H   0  0  0  0  0  0  0  0  0  0  0  0
    0.9682    1.8015    4.1920 H   0  0  0  0  0  0  0  0  0  0  0  0
  1  2  2  0  0  0  0
  2  3  1  0  0  0  0
  2 28  1  0  0  0  0
  3  4  1  0  0  0  0
  3 57  1  0  0  0  0
  3 58  1  0  0  0  0
  4  5  1  0  0  0  0
  4 27  1  0  0  0  0
  5  6  2  0  0  0  0
  5 59  1  0  0  0  0
  6  7  1  0  0  0  0
  6 22  1  0  0  0  0
  7  8  2  0  0  0  0
  7 20  1  0  0  0  0
  8  9  1  0  0  0  0
  8 17  1  0  0  0  0
  9 10  2  0  0  0  0
  9 15  1  0  0  0  0
 10 11  1  0  0  0  0
 10 60  1  0  0  0  0
 11 12  2  0  0  0  0
 11 61  1  0  0  0  0
 12 13  1  0  0  0  0
 12 14  1  0  0  0  0
 14 15  2  0  0  0  0
 14 62  1  0  0  0  0
 15 16  1  0  0  0  0
 17 18  2  0  0  0  0
 17 19  1  0  0  0  0
 19 20  1  0  0  0  0
 19 63  1  0  0  0  0
 20 21  2  0  0  0  0
 22 23  2  0  0  0  0
 22 27  1  0  0  0  0
 23 24  1  0  0  0  0
 23 64  1  0  0  0  0
 24 25  2  0  0  0  0
 24 65  1  0  0  0  0
 25 26  1  0  0  0  0
 25 66  1  0  0  0  0
 26 27  2  0  0  0  0
 26 67  1  0  0  0  0
 28 29  1  0  0  0  0
 28 68  1  0  0  0  0
 29 30  1  0  0  0  0
 29 69  1  0  0  0  0
 29 70  1  0  0  0  0
 30 31  1  0  0  0  0
 30 71  1  0  0  0  0
 30 72  1  0  0  0  0
 31 32  1  0  0  0  0
 32 33  1  0  0  0  0
 32 73  1  0  0  0  0
 32 74  1  0  0  0  0
 33 34  1  0  0  0  0
 33 75  1  0  0  0  0
 33 76  1  0  0  0  0
 34 35  1  0  0  0  0
 35 36  1  0  0  0  0
 35 77  1  0  0  0  0
 35 78  1  0  0  0  0
 36 37  1  0  0  0  0
 36 79  1  0  0  0  0
 36 80  1  0  0  0  0
 37 38  1  0  0  0  0
 37 81  1  0  0  0  0
 38 39  2  0  0  0  0
 38 43  1  0  0  0  0
 39 40  1  0  0  0  0
 39 82  1  0  0  0  0
 40 41  2  0  0  0  0
 40 83  1  0  0  0  0
 41 42  1  0  0  0  0
 41 84  1  0  0  0  0
 42 43  2  0  0  0  0
 42 55  1  0  0  0  0
 43 44  1  0  0  0  0
 44 45  2  0  0  0  0
 44 46  1  0  0  0  0
 46 47  1  0  0  0  0
 46 55  1  0  0  0  0
 47 48  1  0  0  0  0
 47 53  1  0  0  0  0
 47 85  1  0  0  0  0
 48 49  1  0  0  0  0
 48 86  1  0  0  0  0
 48 87  1  0  0  0  0
 49 50  1  0  0  0  0
 49 88  1  0  0  0  0
 49 89  1  0  0  0  0
 50 51  2  0  0  0  0
 50 52  1  0  0  0  0
 52 53  1  0  0  0  0
 52 90  1  0  0  0  0
 53 54  2  0  0  0  0
 55 56  2  0  0  0  0
M  END
$$$$
protac3895RUN2
  chem.cr 07102519423D
protac3895RUN2
 90 96  0  0  0  0  0  0  0  0999 V2000
    2.3599    1.0334   -0.0447 O   0  0  0  0  0  0  0  0  0  0  0  0
    1.7566    0.0976    0.4596 C   0  0  0  0  0  0  0  0  0  0  0  0
    0.6656    0.2927    1.4957 C   0  0  0  0  0  0  0  0  0  0  0  0
    0.5543   -0.7718    2.5186 N   0  0  0  0  0  0  0  0  0  0  0  0
    1.7094   -1.4222    2.9746 C   0  0  0  0  0  0  0  0  0  0  0  0
    1.5048   -2.7559    3.0768 C   0  0  0  0  0  0  0  0  0  0  0  0
    2.4410   -3.7308    3.2821 C   0  0  0  0  0  0  0  0  0  0  0  0
    3.7265   -3.5417    3.6632 C   0  0  0  0  0  0  0  0  0  0  0  0
    4.3179   -2.3403    3.9993 C   0  0  0  0  0  0  0  0  0  0  0  0
    4.0321   -1.7613    5.2510 C   0  0  0  0  0  0  0  0  0  0  0  0
    4.6240   -0.5418    5.6223 C   0  0  0  0  0  0  0  0  0  0  0  0
    5.5102    0.1012    4.7448 C   0  0  0  0  0  0  0  0  0  0  0  0
    6.2624    1.6186    5.2172 Cl  0  0  0  0  0  0  0  0  0  0  0  0
    5.8019   -0.4681    3.4948 C   0  0  0  0  0  0  0  0  0  0  0  0
    5.2084   -1.6863    3.1201 C   0  0  0  0  0  0  0  0  0  0  0  0
    5.5780   -2.3658    1.5375 Cl  0  0  0  0  0  0  0  0  0  0  0  0
    4.4011   -4.6901    3.7284 C   0  0  0  0  0  0  0  0  0  0  0  0
    5.5551   -4.9731    4.0203 O   0  0  0  0  0  0  0  0  0  0  0  0
    3.5342   -5.7137    3.3970 N   0  0  0  0  0  0  0  0  0  0  0  0
    2.3378   -5.0709    3.0868 C   0  0  0  0  0  0  0  0  0  0  0  0
    1.4789   -5.7996    2.6112 O   0  0  0  0  0  0  0  0  0  0  0  0
    0.1304   -2.9335    2.8501 C   0  0  0  0  0  0  0  0  0  0  0  0
   -0.7431   -3.9981    3.1636 C   0  0  0  0  0  0  0  0  0  0  0  0
   -2.1308   -3.8417    2.9557 C   0  0  0  0  0  0  0  0  0  0  0  0
   -2.6645   -2.6101    2.5220 C   0  0  0  0  0  0  0  0  0  0  0  0
   -1.8110   -1.5116    2.3218 C   0  0  0  0  0  0  0  0  0  0  0  0
   -0.4360   -1.7107    2.4850 C   0  0  0  0  0  0  0  0  0  0  0  0
    2.0091   -1.2089   -0.0015 N   0  0  0  0  0  0  0  0  0  0  0  0
    3.0349   -1.5223   -1.0138 C   0  0  0  0  0  0  0  0  0  0  0  0
    2.5015   -1.2371   -2.4205 C   0  0  0  0  0  0  0  0  0  0  0  0
    3.5524   -1.4326   -3.3768 O   0  0  0  0  0  0  0  0  0  0  0  0
    3.2123   -1.0944   -4.7375 C   0  0  0  0  0  0  0  0  0  0  0  0
    3.5054    0.4074   -5.0253 C   0  0  0  0  0  0  0  0  0  0  0  0
    2.7030    1.2822   -4.2109 O   0  0  0  0  0  0  0  0  0  0  0  0
    1.2905    1.3233   -4.4600 C   0  0  0  0  0  0  0  0  0  0  0  0
    0.6976    2.1576   -3.3080 C   0  0  0  0  0  0  0  0  0  0  0  0
   -0.7730    2.0904   -3.2639 N   0  0  0  0  0  0  0  0  0  0  0  0
   -1.4649    1.2457   -2.4031 C   0  0  0  0  0  0  0  0  0  0  0  0
   -1.0064   -0.0514   -2.0763 C   0  0  0  0  0  0  0  0  0  0  0  0
   -1.7384   -0.8970   -1.2078 C   0  0  0  0  0  0  0  0  0  0  0  0
   -2.9430   -0.4510   -0.6294 C   0  0  0  0  0  0  0  0  0  0  0  0
   -3.3722    0.8451   -0.9329 C   0  0  0  0  0  0  0  0  0  0  0  0
   -2.6623    1.6666   -1.8110 C   0  0  0  0  0  0  0  0  0  0  0  0
   -3.3400    2.8595   -1.9357 C   0  0  0  0  0  0  0  0  0  0  0  0
   -3.2927    3.6287   -2.8892 O   0  0  0  0  0  0  0  0  0  0  0  0
   -4.4827    2.7820   -1.1257 N   0  0  0  0  0  0  0  0  0  0  0  0
   -5.5059    3.8283   -0.9368 C   0  0  0  0  0  0  0  0  0  0  0  0
   -6.6065    3.6625   -2.0045 C   0  0  0  0  0  0  0  0  0  0  0  0
   -7.6220    4.8172   -1.8923 C   0  0  0  0  0  0  0  0  0  0  0  0
   -6.9329    6.1561   -2.0091 C   0  0  0  0  0  0  0  0  0  0  0  0
   -7.4780    7.1593   -2.4440 O   0  0  0  0  0  0  0  0  0  0  0  0
   -5.6628    6.3094   -1.4417 N   0  0  0  0  0  0  0  0  0  0  0  0
   -4.9211    5.2408   -0.9122 C   0  0  0  0  0  0  0  0  0  0  0  0
   -3.9375    5.5526   -0.2543 O   0  0  0  0  0  0  0  0  0  0  0  0
   -4.4823    1.5315   -0.5074 C   0  0  0  0  0  0  0  0  0  0  0  0
   -5.3825    1.1529    0.2338 O   0  0  0  0  0  0  0  0  0  0  0  0
    0.8436    1.2436    2.0099 H   0  0  0  0  0  0  0  0  0  0  0  0
   -0.2896    0.3889    0.9668 H   0  0  0  0  0  0  0  0  0  0  0  0
    2.6270   -0.8430    3.0292 H   0  0  0  0  0  0  0  0  0  0  0  0
    3.3514   -2.2620    5.9343 H   0  0  0  0  0  0  0  0  0  0  0  0
    4.4014   -0.1002    6.5897 H   0  0  0  0  0  0  0  0  0  0  0  0
    6.4937    0.0296    2.8201 H   0  0  0  0  0  0  0  0  0  0  0  0
    3.8252   -6.5849    2.9815 H   0  0  0  0  0  0  0  0  0  0  0  0
   -0.3971   -4.9139    3.6231 H   0  0  0  0  0  0  0  0  0  0  0  0
   -2.8014   -4.6659    3.1837 H   0  0  0  0  0  0  0  0  0  0  0  0
   -3.7397   -2.4930    2.4109 H   0  0  0  0  0  0  0  0  0  0  0  0
   -2.2103   -0.5258    2.1004 H   0  0  0  0  0  0  0  0  0  0  0  0
    1.5378   -1.9709    0.4755 H   0  0  0  0  0  0  0  0  0  0  0  0
    3.3279   -2.5773   -0.9385 H   0  0  0  0  0  0  0  0  0  0  0  0
    3.9258   -0.9038   -0.8364 H   0  0  0  0  0  0  0  0  0  0  0  0
    2.1537   -0.2021   -2.4317 H   0  0  0  0  0  0  0  0  0  0  0  0
    1.6545   -1.8999   -2.6377 H   0  0  0  0  0  0  0  0  0  0  0  0
    2.1671   -1.3381   -4.9602 H   0  0  0  0  0  0  0  0  0  0  0  0
    3.8314   -1.6909   -5.4190 H   0  0  0  0  0  0  0  0  0  0  0  0
    3.3310    0.6146   -6.0890 H   0  0  0  0  0  0  0  0  0  0  0  0
    4.5679    0.5938   -4.8236 H   0  0  0  0  0  0  0  0  0  0  0  0
    1.0717    1.7915   -5.4286 H   0  0  0  0  0  0  0  0  0  0  0  0
    0.8541    0.3183   -4.4495 H   0  0  0  0  0  0  0  0  0  0  0  0
    1.1133    1.8045   -2.3545 H   0  0  0  0  0  0  0  0  0  0  0  0
    1.0182    3.2004   -3.4255 H   0  0  0  0  0  0  0  0  0  0  0  0
   -1.2840    2.9256   -3.5360 H   0  0  0  0  0  0  0  0  0  0  0  0
   -0.0932   -0.4213   -2.5184 H   0  0  0  0  0  0  0  0  0  0  0  0
   -1.3747   -1.8990   -0.9911 H   0  0  0  0  0  0  0  0  0  0  0  0
   -3.5253   -1.0909    0.0280 H   0  0  0  0  0  0  0  0  0  0  0  0
   -5.9601    3.6724    0.0513 H   0  0  0  0  0  0  0  0  0  0  0  0
   -7.1024    2.6899   -1.8866 H   0  0  0  0  0  0  0  0  0  0  0  0
   -6.1441    3.6729   -3.0024 H   0  0  0  0  0  0  0  0  0  0  0  0
   -8.3822    4.7287   -2.6784 H   0  0  0  0  0  0  0  0  0  0  0  0
   -8.1518    4.7704   -0.9322 H   0  0  0  0  0  0  0  0  0  0  0  0
   -5.2496    7.2301   -1.4279 H   0  0  0  0  0  0  0  0  0  0  0  0
  1  2  2  0  0  0  0
  2  3  1  0  0  0  0
  2 28  1  0  0  0  0
  3  4  1  0  0  0  0
  3 57  1  0  0  0  0
  3 58  1  0  0  0  0
  4  5  1  0  0  0  0
  4 27  1  0  0  0  0
  5  6  2  0  0  0  0
  5 59  1  0  0  0  0
  6  7  1  0  0  0  0
  6 22  1  0  0  0  0
  7  8  2  0  0  0  0
  7 20  1  0  0  0  0
  8  9  1  0  0  0  0
  8 17  1  0  0  0  0
  9 10  2  0  0  0  0
  9 15  1  0  0  0  0
 10 11  1  0  0  0  0
 10 60  1  0  0  0  0
 11 12  2  0  0  0  0
 11 61  1  0  0  0  0
 12 13  1  0  0  0  0
 12 14  1  0  0  0  0
 14 15  2  0  0  0  0
 14 62  1  0  0  0  0
 15 16  1  0  0  0  0
 17 18  2  0  0  0  0
 17 19  1  0  0  0  0
 19 20  1  0  0  0  0
 19 63  1  0  0  0  0
 20 21  2  0  0  0  0
 22 23  2  0  0  0  0
 22 27  1  0  0  0  0
 23 24  1  0  0  0  0
 23 64  1  0  0  0  0
 24 25  2  0  0  0  0
 24 65  1  0  0  0  0
 25 26  1  0  0  0  0
 25 66  1  0  0  0  0
 26 27  2  0  0  0  0
 26 67  1  0  0  0  0
 28 29  1  0  0  0  0
 28 68  1  0  0  0  0
 29 30  1  0  0  0  0
 29 69  1  0  0  0  0
 29 70  1  0  0  0  0
 30 31  1  0  0  0  0
 30 71  1  0  0  0  0
 30 72  1  0  0  0  0
 31 32  1  0  0  0  0
 32 33  1  0  0  0  0
 32 73  1  0  0  0  0
 32 74  1  0  0  0  0
 33 34  1  0  0  0  0
 33 75  1  0  0  0  0
 33 76  1  0  0  0  0
 34 35  1  0  0  0  0
 35 36  1  0  0  0  0
 35 77  1  0  0  0  0
 35 78  1  0  0  0  0
 36 37  1  0  0  0  0
 36 79  1  0  0  0  0
 36 80  1  0  0  0  0
 37 38  1  0  0  0  0
 37 81  1  0  0  0  0
 38 39  2  0  0  0  0
 38 43  1  0  0  0  0
 39 40  1  0  0  0  0
 39 82  1  0  0  0  0
 40 41  2  0  0  0  0
 40 83  1  0  0  0  0
 41 42  1  0  0  0  0
 41 84  1  0  0  0  0
 42 43  2  0  0  0  0
 42 55  1  0  0  0  0
 43 44  1  0  0  0  0
 44 45  2  0  0  0  0
 44 46  1  0  0  0  0
 46 47  1  0  0  0  0
 46 55  1  0  0  0  0
 47 48  1  0  0  0  0
 47 53  1  0  0  0  0
 47 85  1  0  0  0  0
 48 49  1  0  0  0  0
 48 86  1  0  0  0  0
 48 87  1  0  0  0  0
 49 50  1  0  0  0  0
 49 88  1  0  0  0  0
 49 89  1  0  0  0  0
 50 51  2  0  0  0  0
 50 52  1  0  0  0  0
 52 53  1  0  0  0  0
 52 90  1  0  0  0  0
 53 54  2  0  0  0  0
 55 56  2  0  0  0  0
M  END
$$$$
protac3895RUN2
  chem.cr 07102519423D
protac3895RUN2
 90 96  0  0  0  0  0  0  0  0999 V2000
    2.9336   -0.3802   -0.5099 O   0  0  0  0  0  0  0  0  0  0  0  0
    1.8958   -0.7306    0.0335 C   0  0  0  0  0  0  0  0  0  0  0  0
    1.5094   -2.1751    0.2157 C   0  0  0  0  0  0  0  0  0  0  0  0
    1.0849   -2.4949    1.5843 N   0  0  0  0  0  0  0  0  0  0  0  0
    1.9864   -2.9059    2.5661 C   0  0  0  0  0  0  0  0  0  0  0  0
    1.3564   -3.6207    3.5277 C   0  0  0  0  0  0  0  0  0  0  0  0
    1.9373   -4.3230    4.5549 C   0  0  0  0  0  0  0  0  0  0  0  0
    3.2446   -4.2724    4.9237 C   0  0  0  0  0  0  0  0  0  0  0  0
    4.2312   -3.4785    4.3742 C   0  0  0  0  0  0  0  0  0  0  0  0
    4.3089   -2.1172    4.7280 C   0  0  0  0  0  0  0  0  0  0  0  0
    5.3028   -1.2922    4.1721 C   0  0  0  0  0  0  0  0  0  0  0  0
    6.2302   -1.8285    3.2644 C   0  0  0  0  0  0  0  0  0  0  0  0
    7.4864   -0.8024    2.5871 Cl  0  0  0  0  0  0  0  0  0  0  0  0
    6.1616   -3.1833    2.9033 C   0  0  0  0  0  0  0  0  0  0  0  0
    5.1686   -4.0105    3.4590 C   0  0  0  0  0  0  0  0  0  0  0  0
    5.1063   -5.7073    2.9828 Cl  0  0  0  0  0  0  0  0  0  0  0  0
    3.5134   -5.0862    5.9480 C   0  0  0  0  0  0  0  0  0  0  0  0
    4.5226   -5.3239    6.5942 O   0  0  0  0  0  0  0  0  0  0  0  0
    2.3487   -5.7486    6.2691 N   0  0  0  0  0  0  0  0  0  0  0  0
    1.3910   -5.2454    5.3945 C   0  0  0  0  0  0  0  0  0  0  0  0
    0.2970   -5.7792    5.4944 O   0  0  0  0  0  0  0  0  0  0  0  0
   -0.0126   -3.5587    3.1835 C   0  0  0  0  0  0  0  0  0  0  0  0
   -1.1934   -3.8414    3.9042 C   0  0  0  0  0  0  0  0  0  0  0  0
   -2.4495   -3.6485    3.2920 C   0  0  0  0  0  0  0  0  0  0  0  0
   -2.5507   -3.0978    1.9977 C   0  0  0  0  0  0  0  0  0  0  0  0
   -1.3890   -2.6850    1.3236 C   0  0  0  0  0  0  0  0  0  0  0  0
   -0.1555   -2.9197    1.9485 C   0  0  0  0  0  0  0  0  0  0  0  0
    1.0022    0.2390    0.5175 N   0  0  0  0  0  0  0  0  0  0  0  0
    1.1171    1.6752    0.2089 C   0  0  0  0  0  0  0  0  0  0  0  0
   -0.2086    2.2524   -0.3323 C   0  0  0  0  0  0  0  0  0  0  0  0
   -0.8036    3.1081    0.6633 O   0  0  0  0  0  0  0  0  0  0  0  0
   -0.2573    4.4375    0.8081 C   0  0  0  0  0  0  0  0  0  0  0  0
   -0.7087    5.3478   -0.3674 C   0  0  0  0  0  0  0  0  0  0  0  0
   -2.0133    5.9174   -0.1091 O   0  0  0  0  0  0  0  0  0  0  0  0
   -3.1391    5.0231    0.0364 C   0  0  0  0  0  0  0  0  0  0  0  0
   -3.3315    4.1783   -1.2429 C   0  0  0  0  0  0  0  0  0  0  0  0
   -3.3550    5.0355   -2.4372 N   0  0  0  0  0  0  0  0  0  0  0  0
   -2.6100    4.7809   -3.5847 C   0  0  0  0  0  0  0  0  0  0  0  0
   -2.0414    5.8848   -4.2586 C   0  0  0  0  0  0  0  0  0  0  0  0
   -1.2493    5.7167   -5.4188 C   0  0  0  0  0  0  0  0  0  0  0  0
   -1.0190    4.4311   -5.9422 C   0  0  0  0  0  0  0  0  0  0  0  0
   -1.5926    3.3417   -5.2771 C   0  0  0  0  0  0  0  0  0  0  0  0
   -2.3698    3.4971   -4.1258 C   0  0  0  0  0  0  0  0  0  0  0  0
   -2.7962    2.2384   -3.7404 C   0  0  0  0  0  0  0  0  0  0  0  0
   -3.8158    1.9708   -3.1152 O   0  0  0  0  0  0  0  0  0  0  0  0
   -2.2808    1.2923   -4.6436 N   0  0  0  0  0  0  0  0  0  0  0  0
   -1.9433   -0.1078   -4.3038 C   0  0  0  0  0  0  0  0  0  0  0  0
   -3.1467   -0.9376   -3.8031 C   0  0  0  0  0  0  0  0  0  0  0  0
   -2.6989   -2.4020   -3.5728 C   0  0  0  0  0  0  0  0  0  0  0  0
   -1.4309   -2.5031   -2.7449 C   0  0  0  0  0  0  0  0  0  0  0  0
   -1.1129   -3.5007   -2.1171 O   0  0  0  0  0  0  0  0  0  0  0  0
   -0.4773   -1.4797   -2.8245 N   0  0  0  0  0  0  0  0  0  0  0  0
   -0.7907   -0.2097   -3.3174 C   0  0  0  0  0  0  0  0  0  0  0  0
    0.0300    0.6727   -3.1013 O   0  0  0  0  0  0  0  0  0  0  0  0
   -1.5385    2.0081   -5.5879 C   0  0  0  0  0  0  0  0  0  0  0  0
   -0.9582    1.4654   -6.5224 O   0  0  0  0  0  0  0  0  0  0  0  0
    0.7024   -2.4280   -0.4780 H   0  0  0  0  0  0  0  0  0  0  0  0
    2.3678   -2.8057   -0.0465 H   0  0  0  0  0  0  0  0  0  0  0  0
    3.0403   -2.7134    2.3919 H   0  0  0  0  0  0  0  0  0  0  0  0
    3.5948   -1.7031    5.4348 H   0  0  0  0  0  0  0  0  0  0  0  0
    5.3584   -0.2435    4.4528 H   0  0  0  0  0  0  0  0  0  0  0  0
    6.8798   -3.5937    2.1997 H   0  0  0  0  0  0  0  0  0  0  0  0
    2.1609   -6.2206    7.1405 H   0  0  0  0  0  0  0  0  0  0  0  0
   -1.1808   -4.1515    4.9369 H   0  0  0  0  0  0  0  0  0  0  0  0
   -3.3533   -3.9036    3.8401 H   0  0  0  0  0  0  0  0  0  0  0  0
   -3.5264   -2.9457    1.5456 H   0  0  0  0  0  0  0  0  0  0  0  0
   -1.4546   -2.1883    0.3594 H   0  0  0  0  0  0  0  0  0  0  0  0
    0.2393   -0.0751    1.1067 H   0  0  0  0  0  0  0  0  0  0  0  0
    1.8957    1.8201   -0.5512 H   0  0  0  0  0  0  0  0  0  0  0  0
    1.4313    2.2104    1.1147 H   0  0  0  0  0  0  0  0  0  0  0  0
   -0.8928    1.4301   -0.5810 H   0  0  0  0  0  0  0  0  0  0  0  0
   -0.0108    2.7936   -1.2646 H   0  0  0  0  0  0  0  0  0  0  0  0
    0.8391    4.4057    0.8425 H   0  0  0  0  0  0  0  0  0  0  0  0
   -0.6010    4.8868    1.7481 H   0  0  0  0  0  0  0  0  0  0  0  0
   -0.6927    4.8091   -1.3212 H   0  0  0  0  0  0  0  0  0  0  0  0
    0.0153    6.1662   -0.4592 H   0  0  0  0  0  0  0  0  0  0  0  0
   -3.0097    4.3617    0.9026 H   0  0  0  0  0  0  0  0  0  0  0  0
   -4.0497    5.6098    0.2125 H   0  0  0  0  0  0  0  0  0  0  0  0
   -2.5249    3.4393   -1.3130 H   0  0  0  0  0  0  0  0  0  0  0  0
   -4.2755    3.6221   -1.1705 H   0  0  0  0  0  0  0  0  0  0  0  0
   -3.5486    6.0120   -2.2582 H   0  0  0  0  0  0  0  0  0  0  0  0
   -2.2040    6.8869   -3.8704 H   0  0  0  0  0  0  0  0  0  0  0  0
   -0.8180    6.5850   -5.9106 H   0  0  0  0  0  0  0  0  0  0  0  0
   -0.4173    4.2794   -6.8363 H   0  0  0  0  0  0  0  0  0  0  0  0
   -1.5939   -0.5813   -5.2312 H   0  0  0  0  0  0  0  0  0  0  0  0
   -3.9706   -0.8891   -4.5277 H   0  0  0  0  0  0  0  0  0  0  0  0
   -3.5229   -0.5198   -2.8595 H   0  0  0  0  0  0  0  0  0  0  0  0
   -3.5016   -2.9652   -3.0782 H   0  0  0  0  0  0  0  0  0  0  0  0
   -2.5252   -2.8959   -4.5376 H   0  0  0  0  0  0  0  0  0  0  0  0
    0.4237   -1.6115   -2.3903 H   0  0  0  0  0  0  0  0  0  0  0  0
  1  2  2  0  0  0  0
  2  3  1  0  0  0  0
  2 28  1  0  0  0  0
  3  4  1  0  0  0  0
  3 57  1  0  0  0  0
  3 58  1  0  0  0  0
  4  5  1  0  0  0  0
  4 27  1  0  0  0  0
  5  6  2  0  0  0  0
  5 59  1  0  0  0  0
  6  7  1  0  0  0  0
  6 22  1  0  0  0  0
  7  8  2  0  0  0  0
  7 20  1  0  0  0  0
  8  9  1  0  0  0  0
  8 17  1  0  0  0  0
  9 10  2  0  0  0  0
  9 15  1  0  0  0  0
 10 11  1  0  0  0  0
 10 60  1  0  0  0  0
 11 12  2  0  0  0  0
 11 61  1  0  0  0  0
 12 13  1  0  0  0  0
 12 14  1  0  0  0  0
 14 15  2  0  0  0  0
 14 62  1  0  0  0  0
 15 16  1  0  0  0  0
 17 18  2  0  0  0  0
 17 19  1  0  0  0  0
 19 20  1  0  0  0  0
 19 63  1  0  0  0  0
 20 21  2  0  0  0  0
 22 23  2  0  0  0  0
 22 27  1  0  0  0  0
 23 24  1  0  0  0  0
 23 64  1  0  0  0  0
 24 25  2  0  0  0  0
 24 65  1  0  0  0  0
 25 26  1  0  0  0  0
 25 66  1  0  0  0  0
 26 27  2  0  0  0  0
 26 67  1  0  0  0  0
 28 29  1  0  0  0  0
 28 68  1  0  0  0  0
 29 30  1  0  0  0  0
 29 69  1  0  0  0  0
 29 70  1  0  0  0  0
 30 31  1  0  0  0  0
 30 71  1  0  0  0  0
 30 72  1  0  0  0  0
 31 32  1  0  0  0  0
 32 33  1  0  0  0  0
 32 73  1  0  0  0  0
 32 74  1  0  0  0  0
 33 34  1  0  0  0  0
 33 75  1  0  0  0  0
 33 76  1  0  0  0  0
 34 35  1  0  0  0  0
 35 36  1  0  0  0  0
 35 77  1  0  0  0  0
 35 78  1  0  0  0  0
 36 37  1  0  0  0  0
 36 79  1  0  0  0  0
 36 80  1  0  0  0  0
 37 38  1  0  0  0  0
 37 81  1  0  0  0  0
 38 39  2  0  0  0  0
 38 43  1  0  0  0  0
 39 40  1  0  0  0  0
 39 82  1  0  0  0  0
 40 41  2  0  0  0  0
 40 83  1  0  0  0  0
 41 42  1  0  0  0  0
 41 84  1  0  0  0  0
 42 43  2  0  0  0  0
 42 55  1  0  0  0  0
 43 44  1  0  0  0  0
 44 45  2  0  0  0  0
 44 46  1  0  0  0  0
 46 47  1  0  0  0  0
 46 55  1  0  0  0  0
 47 48  1  0  0  0  0
 47 53  1  0  0  0  0
 47 85  1  0  0  0  0
 48 49  1  0  0  0  0
 48 86  1  0  0  0  0
 48 87  1  0  0  0  0
 49 50  1  0  0  0  0
 49 88  1  0  0  0  0
 49 89  1  0  0  0  0
 50 51  2  0  0  0  0
 50 52  1  0  0  0  0
 52 53  1  0  0  0  0
 52 90  1  0  0  0  0
 53 54  2  0  0  0  0
 55 56  2  0  0  0  0
M  END
$$$$
protac3895RUN2
  chem.cr 07102519423D
protac3895RUN2
 90 96  0  0  0  0  0  0  0  0999 V2000
   -2.5811    0.1722    1.1547 O   0  0  0  0  0  0  0  0  0  0  0  0
   -1.6806   -0.1413    1.9202 C   0  0  0  0  0  0  0  0  0  0  0  0
   -0.7771   -1.3219    1.6789 C   0  0  0  0  0  0  0  0  0  0  0  0
   -0.8284   -2.3129    2.7610 N   0  0  0  0  0  0  0  0  0  0  0  0
   -0.0516   -2.2522    3.9106 C   0  0  0  0  0  0  0  0  0  0  0  0
   -0.2267   -3.3605    4.6646 C   0  0  0  0  0  0  0  0  0  0  0  0
    0.4681   -3.7081    5.7932 C   0  0  0  0  0  0  0  0  0  0  0  0
    1.3101   -2.9038    6.4908 C   0  0  0  0  0  0  0  0  0  0  0  0
    1.5846   -1.5749    6.2273 C   0  0  0  0  0  0  0  0  0  0  0  0
    0.6813   -0.5859    6.6586 C   0  0  0  0  0  0  0  0  0  0  0  0
    0.9064    0.7667    6.3524 C   0  0  0  0  0  0  0  0  0  0  0  0
    2.0383    1.1365    5.6087 C   0  0  0  0  0  0  0  0  0  0  0  0
    2.3192    2.8290    5.2273 Cl  0  0  0  0  0  0  0  0  0  0  0  0
    2.9537    0.1592    5.1856 C   0  0  0  0  0  0  0  0  0  0  0  0
    2.7334   -1.1935    5.4976 C   0  0  0  0  0  0  0  0  0  0  0  0
    3.8829   -2.3999    4.9246 Cl  0  0  0  0  0  0  0  0  0  0  0  0
    1.8603   -3.5371    7.5253 C   0  0  0  0  0  0  0  0  0  0  0  0
    2.6528   -3.1977    8.3930 O   0  0  0  0  0  0  0  0  0  0  0  0
    1.3648   -4.8269    7.5497 N   0  0  0  0  0  0  0  0  0  0  0  0
    0.5374   -4.9042    6.4320 C   0  0  0  0  0  0  0  0  0  0  0  0
    0.1180   -6.0282    6.1911 O   0  0  0  0  0  0  0  0  0  0  0  0
   -1.2329   -4.0973    3.9971 C   0  0  0  0  0  0  0  0  0  0  0  0
   -2.0500   -5.1754    4.4046 C   0  0  0  0  0  0  0  0  0  0  0  0
   -3.0467   -5.6630    3.5287 C   0  0  0  0  0  0  0  0  0  0  0  0
   -3.2901   -5.0443    2.2856 C   0  0  0  0  0  0  0  0  0  0  0  0
   -2.5668   -3.8963    1.9227 C   0  0  0  0  0  0  0  0  0  0  0  0
   -1.5659   -3.4560    2.7978 C   0  0  0  0  0  0  0  0  0  0  0  0
   -1.2608    0.7732    2.9007 N   0  0  0  0  0  0  0  0  0  0  0  0
   -1.5239    2.2178    2.8159 C   0  0  0  0  0  0  0  0  0  0  0  0
   -0.3787    2.9508    2.0967 C   0  0  0  0  0  0  0  0  0  0  0  0
   -0.8622    4.2530    1.7347 O   0  0  0  0  0  0  0  0  0  0  0  0
   -0.0451    4.9800    0.7972 C   0  0  0  0  0  0  0  0  0  0  0  0
   -0.5776    4.7850   -0.6458 C   0  0  0  0  0  0  0  0  0  0  0  0
   -0.3186    3.4416   -1.0824 O   0  0  0  0  0  0  0  0  0  0  0  0
   -1.4507    2.5591   -1.0743 C   0  0  0  0  0  0  0  0  0  0  0  0
   -0.9323    1.1317   -1.3041 C   0  0  0  0  0  0  0  0  0  0  0  0
   -0.2329    1.0326   -2.5897 N   0  0  0  0  0  0  0  0  0  0  0  0
   -0.3453   -0.0570   -3.4410 C   0  0  0  0  0  0  0  0  0  0  0  0
   -0.5614   -1.3743   -2.9732 C   0  0  0  0  0  0  0  0  0  0  0  0
   -0.6822   -2.4561   -3.8813 C   0  0  0  0  0  0  0  0  0  0  0  0
   -0.6162   -2.2360   -5.2732 C   0  0  0  0  0  0  0  0  0  0  0  0
   -0.4050   -0.9254   -5.7204 C   0  0  0  0  0  0  0  0  0  0  0  0
   -0.2506    0.1280   -4.8220 C   0  0  0  0  0  0  0  0  0  0  0  0
    0.0002    1.2763   -5.5334 C   0  0  0  0  0  0  0  0  0  0  0  0
    0.6186    2.2489   -5.1181 O   0  0  0  0  0  0  0  0  0  0  0  0
    0.0106    0.9397   -6.8968 N   0  0  0  0  0  0  0  0  0  0  0  0
    0.6348    1.7496   -7.9617 C   0  0  0  0  0  0  0  0  0  0  0  0
    2.1624    1.4878   -7.9566 C   0  0  0  0  0  0  0  0  0  0  0  0
    2.9276    2.6154   -8.6760 C   0  0  0  0  0  0  0  0  0  0  0  0
    2.5926    3.9483   -8.0554 C   0  0  0  0  0  0  0  0  0  0  0  0
    3.4022    4.8477   -7.8911 O   0  0  0  0  0  0  0  0  0  0  0  0
    1.2519    4.2130   -7.7655 N   0  0  0  0  0  0  0  0  0  0  0  0
    0.2548    3.2295   -7.8504 C   0  0  0  0  0  0  0  0  0  0  0  0
   -0.8991    3.6342   -7.8929 O   0  0  0  0  0  0  0  0  0  0  0  0
   -0.2735   -0.4268   -6.9951 C   0  0  0  0  0  0  0  0  0  0  0  0
   -0.1089   -1.0517   -8.0378 O   0  0  0  0  0  0  0  0  0  0  0  0
   -1.0697   -1.8103    0.7433 H   0  0  0  0  0  0  0  0  0  0  0  0
    0.2555   -0.9758    1.5543 H   0  0  0  0  0  0  0  0  0  0  0  0
    0.6390   -1.4250    4.0086 H   0  0  0  0  0  0  0  0  0  0  0  0
   -0.1981   -0.8773    7.2278 H   0  0  0  0  0  0  0  0  0  0  0  0
    0.2102    1.5255    6.6989 H   0  0  0  0  0  0  0  0  0  0  0  0
    3.8359    0.4494    4.6217 H   0  0  0  0  0  0  0  0  0  0  0  0
    1.8686   -5.6164    7.9203 H   0  0  0  0  0  0  0  0  0  0  0  0
   -1.9855   -5.6119    5.3897 H   0  0  0  0  0  0  0  0  0  0  0  0
   -3.6587   -6.5081    3.8331 H   0  0  0  0  0  0  0  0  0  0  0  0
   -4.0743   -5.4221    1.6344 H   0  0  0  0  0  0  0  0  0  0  0  0
   -2.8042   -3.3544    1.0128 H   0  0  0  0  0  0  0  0  0  0  0  0
   -0.7021    0.4235    3.6685 H   0  0  0  0  0  0  0  0  0  0  0  0
   -1.6493    2.6304    3.8259 H   0  0  0  0  0  0  0  0  0  0  0  0
   -2.4632    2.3902    2.2712 H   0  0  0  0  0  0  0  0  0  0  0  0
   -0.0843    2.3825    1.2081 H   0  0  0  0  0  0  0  0  0  0  0  0
    0.4971    3.0251    2.7527 H   0  0  0  0  0  0  0  0  0  0  0  0
    1.0064    4.6676    0.8487 H   0  0  0  0  0  0  0  0  0  0  0  0
   -0.0835    6.0510    1.0312 H   0  0  0  0  0  0  0  0  0  0  0  0
   -0.0504    5.4850   -1.3070 H   0  0  0  0  0  0  0  0  0  0  0  0
   -1.6478    5.0294   -0.6913 H   0  0  0  0  0  0  0  0  0  0  0  0
   -1.9775    2.6001   -0.1129 H   0  0  0  0  0  0  0  0  0  0  0  0
   -2.1648    2.8308   -1.8633 H   0  0  0  0  0  0  0  0  0  0  0  0
   -0.2505    0.8611   -0.4908 H   0  0  0  0  0  0  0  0  0  0  0  0
   -1.7884    0.4448   -1.2847 H   0  0  0  0  0  0  0  0  0  0  0  0
    0.0706    1.9034   -3.0196 H   0  0  0  0  0  0  0  0  0  0  0  0
   -0.6206   -1.5639   -1.9069 H   0  0  0  0  0  0  0  0  0  0  0  0
   -0.8290   -3.4636   -3.5011 H   0  0  0  0  0  0  0  0  0  0  0  0
   -0.7153   -3.0559   -5.9788 H   0  0  0  0  0  0  0  0  0  0  0  0
    0.2272    1.4091   -8.9225 H   0  0  0  0  0  0  0  0  0  0  0  0
    2.3768    0.5102   -8.4098 H   0  0  0  0  0  0  0  0  0  0  0  0
    2.5164    1.4421   -6.9155 H   0  0  0  0  0  0  0  0  0  0  0  0
    4.0096    2.4413   -8.6073 H   0  0  0  0  0  0  0  0  0  0  0  0
    2.6735    2.6384   -9.7423 H   0  0  0  0  0  0  0  0  0  0  0  0
    0.9870    5.1457   -7.4876 H   0  0  0  0  0  0  0  0  0  0  0  0
  1  2  2  0  0  0  0
  2  3  1  0  0  0  0
  2 28  1  0  0  0  0
  3  4  1  0  0  0  0
  3 57  1  0  0  0  0
  3 58  1  0  0  0  0
  4  5  1  0  0  0  0
  4 27  1  0  0  0  0
  5  6  2  0  0  0  0
  5 59  1  0  0  0  0
  6  7  1  0  0  0  0
  6 22  1  0  0  0  0
  7  8  2  0  0  0  0
  7 20  1  0  0  0  0
  8  9  1  0  0  0  0
  8 17  1  0  0  0  0
  9 10  2  0  0  0  0
  9 15  1  0  0  0  0
 10 11  1  0  0  0  0
 10 60  1  0  0  0  0
 11 12  2  0  0  0  0
 11 61  1  0  0  0  0
 12 13  1  0  0  0  0
 12 14  1  0  0  0  0
 14 15  2  0  0  0  0
 14 62  1  0  0  0  0
 15 16  1  0  0  0  0
 17 18  2  0  0  0  0
 17 19  1  0  0  0  0
 19 20  1  0  0  0  0
 19 63  1  0  0  0  0
 20 21  2  0  0  0  0
 22 23  2  0  0  0  0
 22 27  1  0  0  0  0
 23 24  1  0  0  0  0
 23 64  1  0  0  0  0
 24 25  2  0  0  0  0
 24 65  1  0  0  0  0
 25 26  1  0  0  0  0
 25 66  1  0  0  0  0
 26 27  2  0  0  0  0
 26 67  1  0  0  0  0
 28 29  1  0  0  0  0
 28 68  1  0  0  0  0
 29 30  1  0  0  0  0
 29 69  1  0  0  0  0
 29 70  1  0  0  0  0
 30 31  1  0  0  0  0
 30 71  1  0  0  0  0
 30 72  1  0  0  0  0
 31 32  1  0  0  0  0
 32 33  1  0  0  0  0
 32 73  1  0  0  0  0
 32 74  1  0  0  0  0
 33 34  1  0  0  0  0
 33 75  1  0  0  0  0
 33 76  1  0  0  0  0
 34 35  1  0  0  0  0
 35 36  1  0  0  0  0
 35 77  1  0  0  0  0
 35 78  1  0  0  0  0
 36 37  1  0  0  0  0
 36 79  1  0  0  0  0
 36 80  1  0  0  0  0
 37 38  1  0  0  0  0
 37 81  1  0  0  0  0
 38 39  2  0  0  0  0
 38 43  1  0  0  0  0
 39 40  1  0  0  0  0
 39 82  1  0  0  0  0
 40 41  2  0  0  0  0
 40 83  1  0  0  0  0
 41 42  1  0  0  0  0
 41 84  1  0  0  0  0
 42 43  2  0  0  0  0
 42 55  1  0  0  0  0
 43 44  1  0  0  0  0
 44 45  2  0  0  0  0
 44 46  1  0  0  0  0
 46 47  1  0  0  0  0
 46 55  1  0  0  0  0
 47 48  1  0  0  0  0
 47 53  1  0  0  0  0
 47 85  1  0  0  0  0
 48 49  1  0  0  0  0
 48 86  1  0  0  0  0
 48 87  1  0  0  0  0
 49 50  1  0  0  0  0
 49 88  1  0  0  0  0
 49 89  1  0  0  0  0
 50 51  2  0  0  0  0
 50 52  1  0  0  0  0
 52 53  1  0  0  0  0
 52 90  1  0  0  0  0
 53 54  2  0  0  0  0
 55 56  2  0  0  0  0
M  END
$$$$
protac3895RUN2
  chem.cr 07102519423D
protac3895RUN2
 90 96  0  0  0  0  0  0  0  0999 V2000
   -2.6417   -0.3761    0.8837 O   0  0  0  0  0  0  0  0  0  0  0  0
   -1.7083   -1.1676    0.8410 C   0  0  0  0  0  0  0  0  0  0  0  0
   -1.8626   -2.6461    1.1015 C   0  0  0  0  0  0  0  0  0  0  0  0
   -1.6773   -3.0469    2.5105 N   0  0  0  0  0  0  0  0  0  0  0  0
   -0.7145   -2.4666    3.3472 C   0  0  0  0  0  0  0  0  0  0  0  0
   -0.2947   -3.3441    4.2883 C   0  0  0  0  0  0  0  0  0  0  0  0
    0.7402   -3.1871    5.1740 C   0  0  0  0  0  0  0  0  0  0  0  0
    1.4213   -2.0393    5.4194 C   0  0  0  0  0  0  0  0  0  0  0  0
    1.1828   -0.7953    4.8686 C   0  0  0  0  0  0  0  0  0  0  0  0
    0.1613    0.0124    5.4030 C   0  0  0  0  0  0  0  0  0  0  0  0
   -0.0660    1.3011    4.8909 C   0  0  0  0  0  0  0  0  0  0  0  0
    0.7291    1.7874    3.8414 C   0  0  0  0  0  0  0  0  0  0  0  0
    0.4716    3.4149    3.2318 Cl  0  0  0  0  0  0  0  0  0  0  0  0
    1.7410    0.9832    3.2919 C   0  0  0  0  0  0  0  0  0  0  0  0
    1.9688   -0.3061    3.8022 C   0  0  0  0  0  0  0  0  0  0  0  0
    3.2374   -1.2950    3.0847 Cl  0  0  0  0  0  0  0  0  0  0  0  0
    2.4023   -2.2193    6.3048 C   0  0  0  0  0  0  0  0  0  0  0  0
    3.2472   -1.4771    6.7897 O   0  0  0  0  0  0  0  0  0  0  0  0
    2.3830   -3.5403    6.7041 N   0  0  0  0  0  0  0  0  0  0  0  0
    1.3687   -4.1175    5.9426 C   0  0  0  0  0  0  0  0  0  0  0  0
    1.3062   -5.3351    6.0362 O   0  0  0  0  0  0  0  0  0  0  0  0
   -1.1087   -4.4817    4.1110 C   0  0  0  0  0  0  0  0  0  0  0  0
   -1.3841   -5.5895    4.9428 C   0  0  0  0  0  0  0  0  0  0  0  0
   -2.3229   -6.5578    4.5258 C   0  0  0  0  0  0  0  0  0  0  0  0
   -3.0432   -6.3994    3.3241 C   0  0  0  0  0  0  0  0  0  0  0  0
   -2.8636   -5.2413    2.5493 C   0  0  0  0  0  0  0  0  0  0  0  0
   -1.9126   -4.3071    2.9801 C   0  0  0  0  0  0  0  0  0  0  0  0
   -0.4345   -0.7107    0.4661 N   0  0  0  0  0  0  0  0  0  0  0  0
   -0.1474    0.7158    0.2580 C   0  0  0  0  0  0  0  0  0  0  0  0
    1.1868    0.9534   -0.4771 C   0  0  0  0  0  0  0  0  0  0  0  0
    1.7370    2.2314   -0.0898 O   0  0  0  0  0  0  0  0  0  0  0  0
    1.4471    3.3774   -0.9232 C   0  0  0  0  0  0  0  0  0  0  0  0
    0.0957    4.0261   -0.5489 C   0  0  0  0  0  0  0  0  0  0  0  0
   -0.9315    3.2702   -1.1862 O   0  0  0  0  0  0  0  0  0  0  0  0
   -2.2768    3.7367   -1.0325 C   0  0  0  0  0  0  0  0  0  0  0  0
   -3.2018    2.6054   -1.5395 C   0  0  0  0  0  0  0  0  0  0  0  0
   -2.7291    2.1115   -2.8458 N   0  0  0  0  0  0  0  0  0  0  0  0
   -2.1438    0.8587   -2.9890 C   0  0  0  0  0  0  0  0  0  0  0  0
   -2.6864   -0.3090   -2.4081 C   0  0  0  0  0  0  0  0  0  0  0  0
   -2.0474   -1.5637   -2.5578 C   0  0  0  0  0  0  0  0  0  0  0  0
   -0.8445   -1.6753   -3.2841 C   0  0  0  0  0  0  0  0  0  0  0  0
   -0.3213   -0.5139   -3.8650 C   0  0  0  0  0  0  0  0  0  0  0  0
   -0.9595    0.7191   -3.7249 C   0  0  0  0  0  0  0  0  0  0  0  0
   -0.1989    1.6666   -4.3717 C   0  0  0  0  0  0  0  0  0  0  0  0
   -0.2613    2.8864   -4.2650 O   0  0  0  0  0  0  0  0  0  0  0  0
    0.9369    1.0299   -4.8876 N   0  0  0  0  0  0  0  0  0  0  0  0
    1.9754    1.6597   -5.7261 C   0  0  0  0  0  0  0  0  0  0  0  0
    2.9907    2.4015   -4.8208 C   0  0  0  0  0  0  0  0  0  0  0  0
    3.7352    3.5055   -5.6025 C   0  0  0  0  0  0  0  0  0  0  0  0
    2.7413    4.4602   -6.2182 C   0  0  0  0  0  0  0  0  0  0  0  0
    2.9179    5.6653   -6.3120 O   0  0  0  0  0  0  0  0  0  0  0  0
    1.6471    3.9029   -6.8841 N   0  0  0  0  0  0  0  0  0  0  0  0
    1.3501    2.5333   -6.8162 C   0  0  0  0  0  0  0  0  0  0  0  0
    0.6077    2.0954   -7.6839 O   0  0  0  0  0  0  0  0  0  0  0  0
    0.8287   -0.3322   -4.6000 C   0  0  0  0  0  0  0  0  0  0  0  0
    1.7918   -1.0852   -4.6871 O   0  0  0  0  0  0  0  0  0  0  0  0
   -2.8780   -2.9280    0.8031 H   0  0  0  0  0  0  0  0  0  0  0  0
   -1.1625   -3.2145    0.4795 H   0  0  0  0  0  0  0  0  0  0  0  0
   -0.3553   -1.4727    3.1049 H   0  0  0  0  0  0  0  0  0  0  0  0
   -0.4451   -0.3600    6.2245 H   0  0  0  0  0  0  0  0  0  0  0  0
   -0.8480    1.9249    5.3175 H   0  0  0  0  0  0  0  0  0  0  0  0
    2.3548    1.3611    2.4781 H   0  0  0  0  0  0  0  0  0  0  0  0
    3.1967   -4.0447    7.0222 H   0  0  0  0  0  0  0  0  0  0  0  0
   -0.9475   -5.7004    5.9241 H   0  0  0  0  0  0  0  0  0  0  0  0
   -2.5147   -7.4198    5.1594 H   0  0  0  0  0  0  0  0  0  0  0  0
   -3.7775   -7.1447    3.0311 H   0  0  0  0  0  0  0  0  0  0  0  0
   -3.4706   -5.0661    1.6672 H   0  0  0  0  0  0  0  0  0  0  0  0
    0.3277   -1.3750    0.4102 H   0  0  0  0  0  0  0  0  0  0  0  0
   -0.1346    1.2245    1.2288 H   0  0  0  0  0  0  0  0  0  0  0  0
   -0.9688    1.1362   -0.3283 H   0  0  0  0  0  0  0  0  0  0  0  0
    1.0407    0.8825   -1.5641 H   0  0  0  0  0  0  0  0  0  0  0  0
    1.8940    0.1655   -0.1864 H   0  0  0  0  0  0  0  0  0  0  0  0
    1.4411    3.1045   -1.9858 H   0  0  0  0  0  0  0  0  0  0  0  0
    2.2346    4.1299   -0.7828 H   0  0  0  0  0  0  0  0  0  0  0  0
    0.0843    5.0619   -0.9124 H   0  0  0  0  0  0  0  0  0  0  0  0
   -0.0315    4.0357    0.5398 H   0  0  0  0  0  0  0  0  0  0  0  0
   -2.5039    3.9573    0.0190 H   0  0  0  0  0  0  0  0  0  0  0  0
   -2.4332    4.6466   -1.6264 H   0  0  0  0  0  0  0  0  0  0  0  0
   -3.2034    1.7966   -0.7962 H   0  0  0  0  0  0  0  0  0  0  0  0
   -4.2284    2.9813   -1.6291 H   0  0  0  0  0  0  0  0  0  0  0  0
   -2.2820    2.8155   -3.4253 H   0  0  0  0  0  0  0  0  0  0  0  0
   -3.6092   -0.2487   -1.8405 H   0  0  0  0  0  0  0  0  0  0  0  0
   -2.4878   -2.4477   -2.1061 H   0  0  0  0  0  0  0  0  0  0  0  0
   -0.3388   -2.6300   -3.4024 H   0  0  0  0  0  0  0  0  0  0  0  0
    2.5120    0.8598   -6.2547 H   0  0  0  0  0  0  0  0  0  0  0  0
    3.6938    1.6833   -4.3756 H   0  0  0  0  0  0  0  0  0  0  0  0
    2.4507    2.8728   -3.9889 H   0  0  0  0  0  0  0  0  0  0  0  0
    4.4070    4.0562   -4.9320 H   0  0  0  0  0  0  0  0  0  0  0  0
    4.3559    3.0711   -6.3965 H   0  0  0  0  0  0  0  0  0  0  0  0
    1.0597    4.5006   -7.4456 H   0  0  0  0  0  0  0  0  0  0  0  0
  1  2  2  0  0  0  0
  2  3  1  0  0  0  0
  2 28  1  0  0  0  0
  3  4  1  0  0  0  0
  3 57  1  0  0  0  0
  3 58  1  0  0  0  0
  4  5  1  0  0  0  0
  4 27  1  0  0  0  0
  5  6  2  0  0  0  0
  5 59  1  0  0  0  0
  6  7  1  0  0  0  0
  6 22  1  0  0  0  0
  7  8  2  0  0  0  0
  7 20  1  0  0  0  0
  8  9  1  0  0  0  0
  8 17  1  0  0  0  0
  9 10  2  0  0  0  0
  9 15  1  0  0  0  0
 10 11  1  0  0  0  0
 10 60  1  0  0  0  0
 11 12  2  0  0  0  0
 11 61  1  0  0  0  0
 12 13  1  0  0  0  0
 12 14  1  0  0  0  0
 14 15  2  0  0  0  0
 14 62  1  0  0  0  0
 15 16  1  0  0  0  0
 17 18  2  0  0  0  0
 17 19  1  0  0  0  0
 19 20  1  0  0  0  0
 19 63  1  0  0  0  0
 20 21  2  0  0  0  0
 22 23  2  0  0  0  0
 22 27  1  0  0  0  0
 23 24  1  0  0  0  0
 23 64  1  0  0  0  0
 24 25  2  0  0  0  0
 24 65  1  0  0  0  0
 25 26  1  0  0  0  0
 25 66  1  0  0  0  0
 26 27  2  0  0  0  0
 26 67  1  0  0  0  0
 28 29  1  0  0  0  0
 28 68  1  0  0  0  0
 29 30  1  0  0  0  0
 29 69  1  0  0  0  0
 29 70  1  0  0  0  0
 30 31  1  0  0  0  0
 30 71  1  0  0  0  0
 30 72  1  0  0  0  0
 31 32  1  0  0  0  0
 32 33  1  0  0  0  0
 32 73  1  0  0  0  0
 32 74  1  0  0  0  0
 33 34  1  0  0  0  0
 33 75  1  0  0  0  0
 33 76  1  0  0  0  0
 34 35  1  0  0  0  0
 35 36  1  0  0  0  0
 35 77  1  0  0  0  0
 35 78  1  0  0  0  0
 36 37  1  0  0  0  0
 36 79  1  0  0  0  0
 36 80  1  0  0  0  0
 37 38  1  0  0  0  0
 37 81  1  0  0  0  0
 38 39  2  0  0  0  0
 38 43  1  0  0  0  0
 39 40  1  0  0  0  0
 39 82  1  0  0  0  0
 40 41  2  0  0  0  0
 40 83  1  0  0  0  0
 41 42  1  0  0  0  0
 41 84  1  0  0  0  0
 42 43  2  0  0  0  0
 42 55  1  0  0  0  0
 43 44  1  0  0  0  0
 44 45  2  0  0  0  0
 44 46  1  0  0  0  0
 46 47  1  0  0  0  0
 46 55  1  0  0  0  0
 47 48  1  0  0  0  0
 47 53  1  0  0  0  0
 47 85  1  0  0  0  0
 48 49  1  0  0  0  0
 48 86  1  0  0  0  0
 48 87  1  0  0  0  0
 49 50  1  0  0  0  0
 49 88  1  0  0  0  0
 49 89  1  0  0  0  0
 50 51  2  0  0  0  0
 50 52  1  0  0  0  0
 52 53  1  0  0  0  0
 52 90  1  0  0  0  0
 53 54  2  0  0  0  0
 55 56  2  0  0  0  0
M  END
$$$$
protac3895RUN2
  chem.cr 07102519423D
protac3895RUN2
 90 96  0  0  0  0  0  0  0  0999 V2000
   -4.3311   -0.3908    5.1768 O   0  0  0  0  0  0  0  0  0  0  0  0
   -3.9528    0.3927    4.3167 C   0  0  0  0  0  0  0  0  0  0  0  0
   -3.6210    1.8413    4.6111 C   0  0  0  0  0  0  0  0  0  0  0  0
   -2.7497    2.5001    3.6150 N   0  0  0  0  0  0  0  0  0  0  0  0
   -3.2888    2.9921    2.4211 C   0  0  0  0  0  0  0  0  0  0  0  0
   -2.4311    2.8201    1.3872 C   0  0  0  0  0  0  0  0  0  0  0  0
   -2.6920    2.9923    0.0499 C   0  0  0  0  0  0  0  0  0  0  0  0
   -3.8159    3.5412   -0.4804 C   0  0  0  0  0  0  0  0  0  0  0  0
   -4.8907    4.0651    0.2075 C   0  0  0  0  0  0  0  0  0  0  0  0
   -4.8748    5.4159    0.6037 C   0  0  0  0  0  0  0  0  0  0  0  0
   -5.9717    5.9671    1.2889 C   0  0  0  0  0  0  0  0  0  0  0  0
   -7.0874    5.1668    1.5836 C   0  0  0  0  0  0  0  0  0  0  0  0
   -8.4614    5.8579    2.4365 Cl  0  0  0  0  0  0  0  0  0  0  0  0
   -7.1097    3.8174    1.1957 C   0  0  0  0  0  0  0  0  0  0  0  0
   -6.0181    3.2662    0.5049 C   0  0  0  0  0  0  0  0  0  0  0  0
   -6.0556    1.5604    0.0561 Cl  0  0  0  0  0  0  0  0  0  0  0  0
   -3.7905    3.5535   -1.8129 C   0  0  0  0  0  0  0  0  0  0  0  0
   -4.5618    3.9711   -2.6667 O   0  0  0  0  0  0  0  0  0  0  0  0
   -2.6194    2.9511   -2.2195 N   0  0  0  0  0  0  0  0  0  0  0  0
   -1.9575    2.6311   -1.0372 C   0  0  0  0  0  0  0  0  0  0  0  0
   -0.9075    2.0280   -1.2086 O   0  0  0  0  0  0  0  0  0  0  0  0
   -1.2487    2.3328    1.9807 C   0  0  0  0  0  0  0  0  0  0  0  0
    0.0861    2.2486    1.5246 C   0  0  0  0  0  0  0  0  0  0  0  0
    1.0872    1.7475    2.3851 C   0  0  0  0  0  0  0  0  0  0  0  0
    0.7895    1.3956    3.7182 C   0  0  0  0  0  0  0  0  0  0  0  0
   -0.5065    1.6000    4.2192 C   0  0  0  0  0  0  0  0  0  0  0  0
   -1.4809    2.0816    3.3371 C   0  0  0  0  0  0  0  0  0  0  0  0
   -3.9520   -0.0087    2.9712 N   0  0  0  0  0  0  0  0  0  0  0  0
   -4.1520   -1.3934    2.5236 C   0  0  0  0  0  0  0  0  0  0  0  0
   -3.0341   -1.8117    1.5554 C   0  0  0  0  0  0  0  0  0  0  0  0
   -3.1120   -0.9552    0.4035 O   0  0  0  0  0  0  0  0  0  0  0  0
   -2.0835   -1.1423   -0.5827 C   0  0  0  0  0  0  0  0  0  0  0  0
   -2.3911   -2.4079   -1.4173 C   0  0  0  0  0  0  0  0  0  0  0  0
   -1.1619   -3.0134   -1.8516 O   0  0  0  0  0  0  0  0  0  0  0  0
   -0.3705   -2.2569   -2.7809 C   0  0  0  0  0  0  0  0  0  0  0  0
    0.7249   -3.1997   -3.3207 C   0  0  0  0  0  0  0  0  0  0  0  0
    2.0579   -2.8357   -2.8105 N   0  0  0  0  0  0  0  0  0  0  0  0
    2.6772   -3.4065   -1.7026 C   0  0  0  0  0  0  0  0  0  0  0  0
    1.9644   -4.0653   -0.6738 C   0  0  0  0  0  0  0  0  0  0  0  0
    2.6356   -4.6254    0.4405 C   0  0  0  0  0  0  0  0  0  0  0  0
    4.0406   -4.5527    0.5428 C   0  0  0  0  0  0  0  0  0  0  0  0
    4.7379   -3.9042   -0.4846 C   0  0  0  0  0  0  0  0  0  0  0  0
    4.0727   -3.3368   -1.5715 C   0  0  0  0  0  0  0  0  0  0  0  0
    5.0097   -2.7490   -2.3902 C   0  0  0  0  0  0  0  0  0  0  0  0
    4.7937   -1.8904   -3.2374 O   0  0  0  0  0  0  0  0  0  0  0  0
    6.2746   -2.9261   -1.8006 N   0  0  0  0  0  0  0  0  0  0  0  0
    7.5773   -2.3729   -2.2453 C   0  0  0  0  0  0  0  0  0  0  0  0
    7.9525   -1.1190   -1.4241 C   0  0  0  0  0  0  0  0  0  0  0  0
    7.0808    0.0739   -1.8703 C   0  0  0  0  0  0  0  0  0  0  0  0
    7.1458    0.2947   -3.3671 C   0  0  0  0  0  0  0  0  0  0  0  0
    7.0168    1.3931   -3.8866 O   0  0  0  0  0  0  0  0  0  0  0  0
    7.5106   -0.7690   -4.2036 N   0  0  0  0  0  0  0  0  0  0  0  0
    7.6509   -2.0887   -3.7427 C   0  0  0  0  0  0  0  0  0  0  0  0
    8.0335   -2.9118   -4.5625 O   0  0  0  0  0  0  0  0  0  0  0  0
    6.0850   -3.6745   -0.6344 C   0  0  0  0  0  0  0  0  0  0  0  0
    6.9850   -3.8790    0.1738 O   0  0  0  0  0  0  0  0  0  0  0  0
   -4.5565    2.4030    4.7012 H   0  0  0  0  0  0  0  0  0  0  0  0
   -3.1249    1.8855    5.5866 H   0  0  0  0  0  0  0  0  0  0  0  0
   -4.3231    3.3146    2.4400 H   0  0  0  0  0  0  0  0  0  0  0  0
   -4.0127    6.0360    0.3703 H   0  0  0  0  0  0  0  0  0  0  0  0
   -5.9592    7.0130    1.5847 H   0  0  0  0  0  0  0  0  0  0  0  0
   -7.9754    3.2021    1.4226 H   0  0  0  0  0  0  0  0  0  0  0  0
   -2.1678    3.1077   -3.1068 H   0  0  0  0  0  0  0  0  0  0  0  0
    0.3950    2.6116    0.5559 H   0  0  0  0  0  0  0  0  0  0  0  0
    2.1084    1.6614    2.0232 H   0  0  0  0  0  0  0  0  0  0  0  0
    1.5743    1.0218    4.3707 H   0  0  0  0  0  0  0  0  0  0  0  0
   -0.7355    1.4125    5.2632 H   0  0  0  0  0  0  0  0  0  0  0  0
   -3.5669    0.6425    2.2934 H   0  0  0  0  0  0  0  0  0  0  0  0
   -5.1236   -1.4726    2.0192 H   0  0  0  0  0  0  0  0  0  0  0  0
   -4.1601   -2.0723    3.3870 H   0  0  0  0  0  0  0  0  0  0  0  0
   -3.1676   -2.8649    1.2816 H   0  0  0  0  0  0  0  0  0  0  0  0
   -2.0611   -1.7024    2.0530 H   0  0  0  0  0  0  0  0  0  0  0  0
   -1.1003   -1.2275   -0.1004 H   0  0  0  0  0  0  0  0  0  0  0  0
   -2.0522   -0.2809   -1.2591 H   0  0  0  0  0  0  0  0  0  0  0  0
   -3.0210   -2.1392   -2.2749 H   0  0  0  0  0  0  0  0  0  0  0  0
   -2.9527   -3.1323   -0.8181 H   0  0  0  0  0  0  0  0  0  0  0  0
   -0.9940   -1.9147   -3.6181 H   0  0  0  0  0  0  0  0  0  0  0  0
    0.0798   -1.3757   -2.3030 H   0  0  0  0  0  0  0  0  0  0  0  0
    0.4872   -4.2404   -3.0658 H   0  0  0  0  0  0  0  0  0  0  0  0
    0.7324   -3.1360   -4.4165 H   0  0  0  0  0  0  0  0  0  0  0  0
    2.6664   -2.2923   -3.4165 H   0  0  0  0  0  0  0  0  0  0  0  0
    0.8827   -4.1314   -0.7215 H   0  0  0  0  0  0  0  0  0  0  0  0
    2.0629   -5.1118    1.2257 H   0  0  0  0  0  0  0  0  0  0  0  0
    4.5690   -4.9792    1.3916 H   0  0  0  0  0  0  0  0  0  0  0  0
    8.3320   -3.1464   -2.0419 H   0  0  0  0  0  0  0  0  0  0  0  0
    9.0107   -0.8790   -1.5930 H   0  0  0  0  0  0  0  0  0  0  0  0
    7.8331   -1.3086   -0.3490 H   0  0  0  0  0  0  0  0  0  0  0  0
    6.0351   -0.0961   -1.5825 H   0  0  0  0  0  0  0  0  0  0  0  0
    7.4010    0.9857   -1.3530 H   0  0  0  0  0  0  0  0  0  0  0  0
    7.5732   -0.6008   -5.1956 H   0  0  0  0  0  0  0  0  0  0  0  0
  1  2  2  0  0  0  0
  2  3  1  0  0  0  0
  2 28  1  0  0  0  0
  3  4  1  0  0  0  0
  3 57  1  0  0  0  0
  3 58  1  0  0  0  0
  4  5  1  0  0  0  0
  4 27  1  0  0  0  0
  5  6  2  0  0  0  0
  5 59  1  0  0  0  0
  6  7  1  0  0  0  0
  6 22  1  0  0  0  0
  7  8  2  0  0  0  0
  7 20  1  0  0  0  0
  8  9  1  0  0  0  0
  8 17  1  0  0  0  0
  9 10  2  0  0  0  0
  9 15  1  0  0  0  0
 10 11  1  0  0  0  0
 10 60  1  0  0  0  0
 11 12  2  0  0  0  0
 11 61  1  0  0  0  0
 12 13  1  0  0  0  0
 12 14  1  0  0  0  0
 14 15  2  0  0  0  0
 14 62  1  0  0  0  0
 15 16  1  0  0  0  0
 17 18  2  0  0  0  0
 17 19  1  0  0  0  0
 19 20  1  0  0  0  0
 19 63  1  0  0  0  0
 20 21  2  0  0  0  0
 22 23  2  0  0  0  0
 22 27  1  0  0  0  0
 23 24  1  0  0  0  0
 23 64  1  0  0  0  0
 24 25  2  0  0  0  0
 24 65  1  0  0  0  0
 25 26  1  0  0  0  0
 25 66  1  0  0  0  0
 26 27  2  0  0  0  0
 26 67  1  0  0  0  0
 28 29  1  0  0  0  0
 28 68  1  0  0  0  0
 29 30  1  0  0  0  0
 29 69  1  0  0  0  0
 29 70  1  0  0  0  0
 30 31  1  0  0  0  0
 30 71  1  0  0  0  0
 30 72  1  0  0  0  0
 31 32  1  0  0  0  0
 32 33  1  0  0  0  0
 32 73  1  0  0  0  0
 32 74  1  0  0  0  0
 33 34  1  0  0  0  0
 33 75  1  0  0  0  0
 33 76  1  0  0  0  0
 34 35  1  0  0  0  0
 35 36  1  0  0  0  0
 35 77  1  0  0  0  0
 35 78  1  0  0  0  0
 36 37  1  0  0  0  0
 36 79  1  0  0  0  0
 36 80  1  0  0  0  0
 37 38  1  0  0  0  0
 37 81  1  0  0  0  0
 38 39  2  0  0  0  0
 38 43  1  0  0  0  0
 39 40  1  0  0  0  0
 39 82  1  0  0  0  0
 40 41  2  0  0  0  0
 40 83  1  0  0  0  0
 41 42  1  0  0  0  0
 41 84  1  0  0  0  0
 42 43  2  0  0  0  0
 42 55  1  0  0  0  0
 43 44  1  0  0  0  0
 44 45  2  0  0  0  0
 44 46  1  0  0  0  0
 46 47  1  0  0  0  0
 46 55  1  0  0  0  0
 47 48  1  0  0  0  0
 47 53  1  0  0  0  0
 47 85  1  0  0  0  0
 48 49  1  0  0  0  0
 48 86  1  0  0  0  0
 48 87  1  0  0  0  0
 49 50  1  0  0  0  0
 49 88  1  0  0  0  0
 49 89  1  0  0  0  0
 50 51  2  0  0  0  0
 50 52  1  0  0  0  0
 52 53  1  0  0  0  0
 52 90  1  0  0  0  0
 53 54  2  0  0  0  0
 55 56  2  0  0  0  0
M  END
$$$$
protac3895RUN2
  chem.cr 07102519423D
protac3895RUN2
 90 96  0  0  0  0  0  0  0  0999 V2000
    0.4213    2.2073    0.1487 O   0  0  0  0  0  0  0  0  0  0  0  0
   -0.1029    1.2676    0.7295 C   0  0  0  0  0  0  0  0  0  0  0  0
   -1.4052    0.6528    0.2733 C   0  0  0  0  0  0  0  0  0  0  0  0
   -2.5713    1.0919    1.0680 N   0  0  0  0  0  0  0  0  0  0  0  0
   -2.7088    2.4271    1.4677 C   0  0  0  0  0  0  0  0  0  0  0  0
   -4.0037    2.7470    1.6863 C   0  0  0  0  0  0  0  0  0  0  0  0
   -4.4972    3.9020    2.2381 C   0  0  0  0  0  0  0  0  0  0  0  0
   -3.7934    5.0324    2.4988 C   0  0  0  0  0  0  0  0  0  0  0  0
   -2.4611    5.2515    2.2179 C   0  0  0  0  0  0  0  0  0  0  0  0
   -2.0759    5.5661    0.9013 C   0  0  0  0  0  0  0  0  0  0  0  0
   -0.7161    5.7160    0.5781 C   0  0  0  0  0  0  0  0  0  0  0  0
    0.2620    5.5624    1.5733 C   0  0  0  0  0  0  0  0  0  0  0  0
    1.9632    5.7170    1.1609 Cl  0  0  0  0  0  0  0  0  0  0  0  0
   -0.1163    5.2768    2.8941 C   0  0  0  0  0  0  0  0  0  0  0  0
   -1.4735    5.1150    3.2174 C   0  0  0  0  0  0  0  0  0  0  0  0
   -1.9157    4.6841    4.8684 Cl  0  0  0  0  0  0  0  0  0  0  0  0
   -4.5428    5.9655    3.0850 C   0  0  0  0  0  0  0  0  0  0  0  0
   -4.3085    7.0914    3.5017 O   0  0  0  0  0  0  0  0  0  0  0  0
   -5.8240    5.4662    3.2130 N   0  0  0  0  0  0  0  0  0  0  0  0
   -5.7391    4.1672    2.7182 C   0  0  0  0  0  0  0  0  0  0  0  0
   -6.7454    3.4948    2.8988 O   0  0  0  0  0  0  0  0  0  0  0  0
   -4.7255    1.6078    1.2778 C   0  0  0  0  0  0  0  0  0  0  0  0
   -6.0865    1.4203    0.9542 C   0  0  0  0  0  0  0  0  0  0  0  0
   -6.5240    0.1602    0.4915 C   0  0  0  0  0  0  0  0  0  0  0  0
   -5.6085   -0.8912    0.2770 C   0  0  0  0  0  0  0  0  0  0  0  0
   -4.2333   -0.6726    0.4699 C   0  0  0  0  0  0  0  0  0  0  0  0
   -3.8323    0.5821    0.9473 C   0  0  0  0  0  0  0  0  0  0  0  0
    0.2449    1.0147    2.0667 N   0  0  0  0  0  0  0  0  0  0  0  0
    1.1319    1.8845    2.8578 C   0  0  0  0  0  0  0  0  0  0  0  0
    2.1176    1.0724    3.7158 C   0  0  0  0  0  0  0  0  0  0  0  0
    3.0042    0.3988    2.8118 O   0  0  0  0  0  0  0  0  0  0  0  0
    4.0399   -0.4162    3.3892 C   0  0  0  0  0  0  0  0  0  0  0  0
    3.4544   -1.6966    4.0470 C   0  0  0  0  0  0  0  0  0  0  0  0
    3.1156   -2.6748    3.0457 O   0  0  0  0  0  0  0  0  0  0  0  0
    1.9670   -2.3984    2.2253 C   0  0  0  0  0  0  0  0  0  0  0  0
    1.7379   -3.6188    1.3073 C   0  0  0  0  0  0  0  0  0  0  0  0
    1.9081   -3.2676   -0.1137 N   0  0  0  0  0  0  0  0  0  0  0  0
    3.1240   -3.1697   -0.7814 C   0  0  0  0  0  0  0  0  0  0  0  0
    4.3767   -3.1904   -0.1201 C   0  0  0  0  0  0  0  0  0  0  0  0
    5.5913   -3.1036   -0.8435 C   0  0  0  0  0  0  0  0  0  0  0  0
    5.5803   -2.9993   -2.2489 C   0  0  0  0  0  0  0  0  0  0  0  0
    4.3384   -2.9795   -2.8917 C   0  0  0  0  0  0  0  0  0  0  0  0
    3.1428   -3.0579   -2.1766 C   0  0  0  0  0  0  0  0  0  0  0  0
    2.1046   -3.0469   -3.0832 C   0  0  0  0  0  0  0  0  0  0  0  0
    0.9128   -2.8580   -2.8650 O   0  0  0  0  0  0  0  0  0  0  0  0
    2.6434   -2.9577   -4.3757 N   0  0  0  0  0  0  0  0  0  0  0  0
    1.9685   -3.4224   -5.6046 C   0  0  0  0  0  0  0  0  0  0  0  0
    1.0021   -2.3469   -6.1317 C   0  0  0  0  0  0  0  0  0  0  0  0
    0.3566   -2.8403   -7.4443 C   0  0  0  0  0  0  0  0  0  0  0  0
   -0.2458   -4.2241   -7.3108 C   0  0  0  0  0  0  0  0  0  0  0  0
   -1.0801   -4.6658   -8.0862 O   0  0  0  0  0  0  0  0  0  0  0  0
    0.2812   -5.1188   -6.3700 N   0  0  0  0  0  0  0  0  0  0  0  0
    1.2585   -4.7600   -5.4324 C   0  0  0  0  0  0  0  0  0  0  0  0
    1.6773   -5.6692   -4.7276 O   0  0  0  0  0  0  0  0  0  0  0  0
    4.0347   -2.9132   -4.2295 C   0  0  0  0  0  0  0  0  0  0  0  0
    4.8022   -2.8925   -5.1873 O   0  0  0  0  0  0  0  0  0  0  0  0
   -1.5775    0.9360   -0.7724 H   0  0  0  0  0  0  0  0  0  0  0  0
   -1.3243   -0.4386    0.3172 H   0  0  0  0  0  0  0  0  0  0  0  0
   -1.8018    2.9941    1.6469 H   0  0  0  0  0  0  0  0  0  0  0  0
   -2.8321    5.6617    0.1258 H   0  0  0  0  0  0  0  0  0  0  0  0
   -0.4213    5.9365   -0.4445 H   0  0  0  0  0  0  0  0  0  0  0  0
    0.6429    5.1637    3.6623 H   0  0  0  0  0  0  0  0  0  0  0  0
   -6.4508    5.7299    3.9562 H   0  0  0  0  0  0  0  0  0  0  0  0
   -6.8045    2.2275    0.9862 H   0  0  0  0  0  0  0  0  0  0  0  0
   -7.5752    0.0094    0.2635 H   0  0  0  0  0  0  0  0  0  0  0  0
   -5.9600   -1.8512   -0.0943 H   0  0  0  0  0  0  0  0  0  0  0  0
   -3.5111   -1.4474    0.2328 H   0  0  0  0  0  0  0  0  0  0  0  0
   -0.2254    0.2518    2.5342 H   0  0  0  0  0  0  0  0  0  0  0  0
    0.5127    2.5175    3.5068 H   0  0  0  0  0  0  0  0  0  0  0  0
    1.7032    2.5464    2.1913 H   0  0  0  0  0  0  0  0  0  0  0  0
    1.5603    0.3655    4.3427 H   0  0  0  0  0  0  0  0  0  0  0  0
    2.6784    1.7531    4.3680 H   0  0  0  0  0  0  0  0  0  0  0  0
    4.5985    0.1594    4.1387 H   0  0  0  0  0  0  0  0  0  0  0  0
    4.7548   -0.7172    2.6110 H   0  0  0  0  0  0  0  0  0  0  0  0
    2.5924   -1.4649    4.6818 H   0  0  0  0  0  0  0  0  0  0  0  0
    4.2295   -2.1173    4.6993 H   0  0  0  0  0  0  0  0  0  0  0  0
    1.0821   -2.2386    2.8537 H   0  0  0  0  0  0  0  0  0  0  0  0
    2.1216   -1.5006    1.6138 H   0  0  0  0  0  0  0  0  0  0  0  0
    2.4240   -4.4315    1.5789 H   0  0  0  0  0  0  0  0  0  0  0  0
    0.7183   -3.9923    1.4642 H   0  0  0  0  0  0  0  0  0  0  0  0
    1.0831   -3.2200   -0.7041 H   0  0  0  0  0  0  0  0  0  0  0  0
    4.4206   -3.2734    0.9598 H   0  0  0  0  0  0  0  0  0  0  0  0
    6.5387   -3.1208   -0.3111 H   0  0  0  0  0  0  0  0  0  0  0  0
    6.5021   -2.9369   -2.8223 H   0  0  0  0  0  0  0  0  0  0  0  0
    2.7388   -3.5843   -6.3703 H   0  0  0  0  0  0  0  0  0  0  0  0
    1.5372   -1.4004   -6.2902 H   0  0  0  0  0  0  0  0  0  0  0  0
    0.2251   -2.1552   -5.3789 H   0  0  0  0  0  0  0  0  0  0  0  0
   -0.4253   -2.1403   -7.7620 H   0  0  0  0  0  0  0  0  0  0  0  0
    1.1061   -2.8572   -8.2454 H   0  0  0  0  0  0  0  0  0  0  0  0
   -0.0872   -6.0571   -6.3380 H   0  0  0  0  0  0  0  0  0  0  0  0
  1  2  2  0  0  0  0
  2  3  1  0  0  0  0
  2 28  1  0  0  0  0
  3  4  1  0  0  0  0
  3 57  1  0  0  0  0
  3 58  1  0  0  0  0
  4  5  1  0  0  0  0
  4 27  1  0  0  0  0
  5  6  2  0  0  0  0
  5 59  1  0  0  0  0
  6  7  1  0  0  0  0
  6 22  1  0  0  0  0
  7  8  2  0  0  0  0
  7 20  1  0  0  0  0
  8  9  1  0  0  0  0
  8 17  1  0  0  0  0
  9 10  2  0  0  0  0
  9 15  1  0  0  0  0
 10 11  1  0  0  0  0
 10 60  1  0  0  0  0
 11 12  2  0  0  0  0
 11 61  1  0  0  0  0
 12 13  1  0  0  0  0
 12 14  1  0  0  0  0
 14 15  2  0  0  0  0
 14 62  1  0  0  0  0
 15 16  1  0  0  0  0
 17 18  2  0  0  0  0
 17 19  1  0  0  0  0
 19 20  1  0  0  0  0
 19 63  1  0  0  0  0
 20 21  2  0  0  0  0
 22 23  2  0  0  0  0
 22 27  1  0  0  0  0
 23 24  1  0  0  0  0
 23 64  1  0  0  0  0
 24 25  2  0  0  0  0
 24 65  1  0  0  0  0
 25 26  1  0  0  0  0
 25 66  1  0  0  0  0
 26 27  2  0  0  0  0
 26 67  1  0  0  0  0
 28 29  1  0  0  0  0
 28 68  1  0  0  0  0
 29 30  1  0  0  0  0
 29 69  1  0  0  0  0
 29 70  1  0  0  0  0
 30 31  1  0  0  0  0
 30 71  1  0  0  0  0
 30 72  1  0  0  0  0
 31 32  1  0  0  0  0
 32 33  1  0  0  0  0
 32 73  1  0  0  0  0
 32 74  1  0  0  0  0
 33 34  1  0  0  0  0
 33 75  1  0  0  0  0
 33 76  1  0  0  0  0
 34 35  1  0  0  0  0
 35 36  1  0  0  0  0
 35 77  1  0  0  0  0
 35 78  1  0  0  0  0
 36 37  1  0  0  0  0
 36 79  1  0  0  0  0
 36 80  1  0  0  0  0
 37 38  1  0  0  0  0
 37 81  1  0  0  0  0
 38 39  2  0  0  0  0
 38 43  1  0  0  0  0
 39 40  1  0  0  0  0
 39 82  1  0  0  0  0
 40 41  2  0  0  0  0
 40 83  1  0  0  0  0
 41 42  1  0  0  0  0
 41 84  1  0  0  0  0
 42 43  2  0  0  0  0
 42 55  1  0  0  0  0
 43 44  1  0  0  0  0
 44 45  2  0  0  0  0
 44 46  1  0  0  0  0
 46 47  1  0  0  0  0
 46 55  1  0  0  0  0
 47 48  1  0  0  0  0
 47 53  1  0  0  0  0
 47 85  1  0  0  0  0
 48 49  1  0  0  0  0
 48 86  1  0  0  0  0
 48 87  1  0  0  0  0
 49 50  1  0  0  0  0
 49 88  1  0  0  0  0
 49 89  1  0  0  0  0
 50 51  2  0  0  0  0
 50 52  1  0  0  0  0
 52 53  1  0  0  0  0
 52 90  1  0  0  0  0
 53 54  2  0  0  0  0
 55 56  2  0  0  0  0
M  END
$$$$
protac3895RUN2
  chem.cr 07102519423D
protac3895RUN2
 90 96  0  0  0  0  0  0  0  0999 V2000
   -1.1354    2.9752    2.2459 O   0  0  0  0  0  0  0  0  0  0  0  0
   -1.6221    1.8525    2.2844 C   0  0  0  0  0  0  0  0  0  0  0  0
   -2.9419    1.5366    2.9650 C   0  0  0  0  0  0  0  0  0  0  0  0
   -4.0920    2.3008    2.4310 N   0  0  0  0  0  0  0  0  0  0  0  0
   -4.1574    3.6921    2.5646 C   0  0  0  0  0  0  0  0  0  0  0  0
   -5.4380    4.1277    2.6231 C   0  0  0  0  0  0  0  0  0  0  0  0
   -5.8728    5.4048    2.8817 C   0  0  0  0  0  0  0  0  0  0  0  0
   -5.1008    6.5192    2.9320 C   0  0  0  0  0  0  0  0  0  0  0  0
   -3.7420    6.5882    2.7014 C   0  0  0  0  0  0  0  0  0  0  0  0
   -3.2641    6.5796    1.3772 C   0  0  0  0  0  0  0  0  0  0  0  0
   -1.8816    6.5745    1.1225 C   0  0  0  0  0  0  0  0  0  0  0  0
   -0.9725    6.5859    2.1915 C   0  0  0  0  0  0  0  0  0  0  0  0
    0.7567    6.5463    1.8738 Cl  0  0  0  0  0  0  0  0  0  0  0  0
   -1.4411    6.6155    3.5144 C   0  0  0  0  0  0  0  0  0  0  0  0
   -2.8221    6.6190    3.7726 C   0  0  0  0  0  0  0  0  0  0  0  0
   -3.3788    6.6123    5.4448 Cl  0  0  0  0  0  0  0  0  0  0  0  0
   -5.8061    7.6079    3.2383 C   0  0  0  0  0  0  0  0  0  0  0  0
   -5.5127    8.7857    3.3941 O   0  0  0  0  0  0  0  0  0  0  0  0
   -7.1274    7.2330    3.3838 N   0  0  0  0  0  0  0  0  0  0  0  0
   -7.1170    5.8506    3.2030 C   0  0  0  0  0  0  0  0  0  0  0  0
   -8.1832    5.3093    3.4567 O   0  0  0  0  0  0  0  0  0  0  0  0
   -6.2179    2.9706    2.4260 C   0  0  0  0  0  0  0  0  0  0  0  0
   -7.5810    2.7938    2.0971 C   0  0  0  0  0  0  0  0  0  0  0  0
   -8.0869    1.4929    1.8964 C   0  0  0  0  0  0  0  0  0  0  0  0
   -7.2358    0.3721    1.9402 C   0  0  0  0  0  0  0  0  0  0  0  0
   -5.8541    0.5457    2.1392 C   0  0  0  0  0  0  0  0  0  0  0  0
   -5.3830    1.8468    2.3686 C   0  0  0  0  0  0  0  0  0  0  0  0
   -0.7889    0.7640    1.9748 N   0  0  0  0  0  0  0  0  0  0  0  0
    0.4902    0.9098    1.2535 C   0  0  0  0  0  0  0  0  0  0  0  0
    1.6990    0.6429    2.1672 C   0  0  0  0  0  0  0  0  0  0  0  0
    1.7058   -0.7572    2.4744 O   0  0  0  0  0  0  0  0  0  0  0  0
    2.7200   -1.1635    3.4032 C   0  0  0  0  0  0  0  0  0  0  0  0
    2.6575   -2.7006    3.5419 C   0  0  0  0  0  0  0  0  0  0  0  0
    3.6176   -3.3189    2.6661 O   0  0  0  0  0  0  0  0  0  0  0  0
    3.3776   -3.2257    1.2535 C   0  0  0  0  0  0  0  0  0  0  0  0
    4.5041   -4.0309    0.5818 C   0  0  0  0  0  0  0  0  0  0  0  0
    4.4488   -3.9213   -0.8873 N   0  0  0  0  0  0  0  0  0  0  0  0
    5.5247   -4.0954   -1.7556 C   0  0  0  0  0  0  0  0  0  0  0  0
    6.8730   -4.1704   -1.3245 C   0  0  0  0  0  0  0  0  0  0  0  0
    7.9329   -4.3326   -2.2511 C   0  0  0  0  0  0  0  0  0  0  0  0
    7.6705   -4.4323   -3.6321 C   0  0  0  0  0  0  0  0  0  0  0  0
    6.3363   -4.3671   -4.0478 C   0  0  0  0  0  0  0  0  0  0  0  0
    5.2923   -4.2022   -3.1358 C   0  0  0  0  0  0  0  0  0  0  0  0
    4.1124   -4.1820   -3.8447 C   0  0  0  0  0  0  0  0  0  0  0  0
    3.0004   -3.8456   -3.4506 O   0  0  0  0  0  0  0  0  0  0  0  0
    4.4144   -4.2999   -5.2091 N   0  0  0  0  0  0  0  0  0  0  0  0
    3.4585   -4.6590   -6.2747 C   0  0  0  0  0  0  0  0  0  0  0  0
    2.6168   -3.4276   -6.6725 C   0  0  0  0  0  0  0  0  0  0  0  0
    1.5534   -3.8303   -7.7169 C   0  0  0  0  0  0  0  0  0  0  0  0
    0.7116   -4.9889   -7.2343 C   0  0  0  0  0  0  0  0  0  0  0  0
   -0.4219   -5.2043   -7.6343 O   0  0  0  0  0  0  0  0  0  0  0  0
    1.3236   -5.9975   -6.4827 N   0  0  0  0  0  0  0  0  0  0  0  0
    2.5922   -5.8590   -5.8994 C   0  0  0  0  0  0  0  0  0  0  0  0
    3.0304   -6.8604   -5.3493 O   0  0  0  0  0  0  0  0  0  0  0  0
    5.8006   -4.4424   -5.3115 C   0  0  0  0  0  0  0  0  0  0  0  0
    6.3851   -4.4338   -6.3884 O   0  0  0  0  0  0  0  0  0  0  0  0
   -3.1550    0.4660    2.8787 H   0  0  0  0  0  0  0  0  0  0  0  0
   -2.8459    1.7696    4.0316 H   0  0  0  0  0  0  0  0  0  0  0  0
   -3.2241    4.2262    2.7027 H   0  0  0  0  0  0  0  0  0  0  0  0
   -3.9720    6.5571    0.5528 H   0  0  0  0  0  0  0  0  0  0  0  0
   -1.5140    6.5532    0.1011 H   0  0  0  0  0  0  0  0  0  0  0  0
   -0.7357    6.6193    4.3397 H   0  0  0  0  0  0  0  0  0  0  0  0
   -7.7783    7.7044    3.9914 H   0  0  0  0  0  0  0  0  0  0  0  0
   -8.2526    3.6229    1.9317 H   0  0  0  0  0  0  0  0  0  0  0  0
   -9.1420    1.3558    1.6715 H   0  0  0  0  0  0  0  0  0  0  0  0
   -7.6434   -0.6199    1.7615 H   0  0  0  0  0  0  0  0  0  0  0  0
   -5.1791   -0.3005    2.0826 H   0  0  0  0  0  0  0  0  0  0  0  0
   -1.0326   -0.1525    2.3283 H   0  0  0  0  0  0  0  0  0  0  0  0
    0.5701    1.9248    0.8393 H   0  0  0  0  0  0  0  0  0  0  0  0
    0.5136    0.2074    0.4100 H   0  0  0  0  0  0  0  0  0  0  0  0
    1.6144    1.2550    3.0758 H   0  0  0  0  0  0  0  0  0  0  0  0
    2.6234    0.9227    1.6435 H   0  0  0  0  0  0  0  0  0  0  0  0
    2.5377   -0.7070    4.3848 H   0  0  0  0  0  0  0  0  0  0  0  0
    3.7186   -0.8602    3.0620 H   0  0  0  0  0  0  0  0  0  0  0  0
    1.6414   -3.0592    3.3346 H   0  0  0  0  0  0  0  0  0  0  0  0
    2.8970   -2.9687    4.5779 H   0  0  0  0  0  0  0  0  0  0  0  0
    2.4003   -3.6517    0.9909 H   0  0  0  0  0  0  0  0  0  0  0  0
    3.4139   -2.1826    0.9120 H   0  0  0  0  0  0  0  0  0  0  0  0
    5.4594   -3.6555    0.9680 H   0  0  0  0  0  0  0  0  0  0  0  0
    4.4120   -5.0857    0.8755 H   0  0  0  0  0  0  0  0  0  0  0  0
    3.5379   -3.8559   -1.3311 H   0  0  0  0  0  0  0  0  0  0  0  0
    7.1197   -4.0992   -0.2714 H   0  0  0  0  0  0  0  0  0  0  0  0
    8.9584   -4.3816   -1.8941 H   0  0  0  0  0  0  0  0  0  0  0  0
    8.4730   -4.5614   -4.3532 H   0  0  0  0  0  0  0  0  0  0  0  0
    4.0365   -4.9709   -7.1542 H   0  0  0  0  0  0  0  0  0  0  0  0
    3.2705   -2.6370   -7.0641 H   0  0  0  0  0  0  0  0  0  0  0  0
    2.1178   -3.0217   -5.7812 H   0  0  0  0  0  0  0  0  0  0  0  0
    0.9012   -2.9749   -7.9362 H   0  0  0  0  0  0  0  0  0  0  0  0
    2.0341   -4.1091   -8.6633 H   0  0  0  0  0  0  0  0  0  0  0  0
    0.7953   -6.8335   -6.2794 H   0  0  0  0  0  0  0  0  0  0  0  0
  1  2  2  0  0  0  0
  2  3  1  0  0  0  0
  2 28  1  0  0  0  0
  3  4  1  0  0  0  0
  3 57  1  0  0  0  0
  3 58  1  0  0  0  0
  4  5  1  0  0  0  0
  4 27  1  0  0  0  0
  5  6  2  0  0  0  0
  5 59  1  0  0  0  0
  6  7  1  0  0  0  0
  6 22  1  0  0  0  0
  7  8  2  0  0  0  0
  7 20  1  0  0  0  0
  8  9  1  0  0  0  0
  8 17  1  0  0  0  0
  9 10  2  0  0  0  0
  9 15  1  0  0  0  0
 10 11  1  0  0  0  0
 10 60  1  0  0  0  0
 11 12  2  0  0  0  0
 11 61  1  0  0  0  0
 12 13  1  0  0  0  0
 12 14  1  0  0  0  0
 14 15  2  0  0  0  0
 14 62  1  0  0  0  0
 15 16  1  0  0  0  0
 17 18  2  0  0  0  0
 17 19  1  0  0  0  0
 19 20  1  0  0  0  0
 19 63  1  0  0  0  0
 20 21  2  0  0  0  0
 22 23  2  0  0  0  0
 22 27  1  0  0  0  0
 23 24  1  0  0  0  0
 23 64  1  0  0  0  0
 24 25  2  0  0  0  0
 24 65  1  0  0  0  0
 25 26  1  0  0  0  0
 25 66  1  0  0  0  0
 26 27  2  0  0  0  0
 26 67  1  0  0  0  0
 28 29  1  0  0  0  0
 28 68  1  0  0  0  0
 29 30  1  0  0  0  0
 29 69  1  0  0  0  0
 29 70  1  0  0  0  0
 30 31  1  0  0  0  0
 30 71  1  0  0  0  0
 30 72  1  0  0  0  0
 31 32  1  0  0  0  0
 32 33  1  0  0  0  0
 32 73  1  0  0  0  0
 32 74  1  0  0  0  0
 33 34  1  0  0  0  0
 33 75  1  0  0  0  0
 33 76  1  0  0  0  0
 34 35  1  0  0  0  0
 35 36  1  0  0  0  0
 35 77  1  0  0  0  0
 35 78  1  0  0  0  0
 36 37  1  0  0  0  0
 36 79  1  0  0  0  0
 36 80  1  0  0  0  0
 37 38  1  0  0  0  0
 37 81  1  0  0  0  0
 38 39  2  0  0  0  0
 38 43  1  0  0  0  0
 39 40  1  0  0  0  0
 39 82  1  0  0  0  0
 40 41  2  0  0  0  0
 40 83  1  0  0  0  0
 41 42  1  0  0  0  0
 41 84  1  0  0  0  0
 42 43  2  0  0  0  0
 42 55  1  0  0  0  0
 43 44  1  0  0  0  0
 44 45  2  0  0  0  0
 44 46  1  0  0  0  0
 46 47  1  0  0  0  0
 46 55  1  0  0  0  0
 47 48  1  0  0  0  0
 47 53  1  0  0  0  0
 47 85  1  0  0  0  0
 48 49  1  0  0  0  0
 48 86  1  0  0  0  0
 48 87  1  0  0  0  0
 49 50  1  0  0  0  0
 49 88  1  0  0  0  0
 49 89  1  0  0  0  0
 50 51  2  0  0  0  0
 50 52  1  0  0  0  0
 52 53  1  0  0  0  0
 52 90  1  0  0  0  0
 53 54  2  0  0  0  0
 55 56  2  0  0  0  0
M  END
$$$$
protac3895RUN2
  chem.cr 07102519423D
protac3895RUN2
 90 96  0  0  0  0  0  0  0  0999 V2000
    1.7795    2.3477    1.4739 O   0  0  0  0  0  0  0  0  0  0  0  0
    0.7799    1.6899    1.7332 C   0  0  0  0  0  0  0  0  0  0  0  0
   -0.1686    2.0037    2.8669 C   0  0  0  0  0  0  0  0  0  0  0  0
   -1.5010    2.4295    2.3978 N   0  0  0  0  0  0  0  0  0  0  0  0
   -1.5317    3.5271    1.5352 C   0  0  0  0  0  0  0  0  0  0  0  0
   -2.4236    3.3642    0.5331 C   0  0  0  0  0  0  0  0  0  0  0  0
   -2.7514    4.2720   -0.4424 C   0  0  0  0  0  0  0  0  0  0  0  0
   -2.0926    5.4273   -0.7119 C   0  0  0  0  0  0  0  0  0  0  0  0
   -0.9478    5.8857   -0.0886 C   0  0  0  0  0  0  0  0  0  0  0  0
    0.2953    5.3019   -0.4040 C   0  0  0  0  0  0  0  0  0  0  0  0
    1.4584    5.6982    0.2774 C   0  0  0  0  0  0  0  0  0  0  0  0
    1.3869    6.6906    1.2673 C   0  0  0  0  0  0  0  0  0  0  0  0
    2.8384    7.1726    2.1339 Cl  0  0  0  0  0  0  0  0  0  0  0  0
    0.1561    7.2919    1.5742 C   0  0  0  0  0  0  0  0  0  0  0  0
   -1.0102    6.8926    0.9004 C   0  0  0  0  0  0  0  0  0  0  0  0
   -2.5472    7.6293    1.3495 Cl  0  0  0  0  0  0  0  0  0  0  0  0
   -2.6674    6.1141   -1.6998 C   0  0  0  0  0  0  0  0  0  0  0  0
   -2.4125    7.1784   -2.2445 O   0  0  0  0  0  0  0  0  0  0  0  0
   -3.7584    5.3902   -2.1415 N   0  0  0  0  0  0  0  0  0  0  0  0
   -3.8013    4.2761   -1.3060 C   0  0  0  0  0  0  0  0  0  0  0  0
   -4.8005    3.5848   -1.4429 O   0  0  0  0  0  0  0  0  0  0  0  0
   -2.9522    2.0744    0.7347 C   0  0  0  0  0  0  0  0  0  0  0  0
   -3.7003    1.2106   -0.0965 C   0  0  0  0  0  0  0  0  0  0  0  0
   -4.0210   -0.0875    0.3560 C   0  0  0  0  0  0  0  0  0  0  0  0
   -3.5526   -0.5598    1.5989 C   0  0  0  0  0  0  0  0  0  0  0  0
   -2.7122    0.2495    2.3813 C   0  0  0  0  0  0  0  0  0  0  0  0
   -2.4198    1.5380    1.9130 C   0  0  0  0  0  0  0  0  0  0  0  0
    0.4027    0.6424    0.8823 N   0  0  0  0  0  0  0  0  0  0  0  0
    1.3693   -0.2327    0.2008 C   0  0  0  0  0  0  0  0  0  0  0  0
    2.4737   -0.7538    1.1433 C   0  0  0  0  0  0  0  0  0  0  0  0
    1.8453   -1.3053    2.3088 O   0  0  0  0  0  0  0  0  0  0  0  0
    2.7561   -1.7612    3.3132 C   0  0  0  0  0  0  0  0  0  0  0  0
    1.9590   -2.4279    4.4555 C   0  0  0  0  0  0  0  0  0  0  0  0
    1.4648   -3.6965    3.9942 O   0  0  0  0  0  0  0  0  0  0  0  0
    0.1545   -3.6862    3.4066 C   0  0  0  0  0  0  0  0  0  0  0  0
    0.0603   -4.8824    2.4399 C   0  0  0  0  0  0  0  0  0  0  0  0
    0.3608   -4.4593    1.0617 N   0  0  0  0  0  0  0  0  0  0  0  0
    1.6199   -4.3191    0.4885 C   0  0  0  0  0  0  0  0  0  0  0  0
    2.8257   -4.6478    1.1526 C   0  0  0  0  0  0  0  0  0  0  0  0
    4.0803   -4.4927    0.5121 C   0  0  0  0  0  0  0  0  0  0  0  0
    4.1570   -4.0083   -0.8101 C   0  0  0  0  0  0  0  0  0  0  0  0
    2.9577   -3.6895   -1.4589 C   0  0  0  0  0  0  0  0  0  0  0  0
    1.7242   -3.8391   -0.8242 C   0  0  0  0  0  0  0  0  0  0  0  0
    0.7400   -3.4415   -1.7011 C   0  0  0  0  0  0  0  0  0  0  0  0
   -0.4015   -3.0921   -1.4211 O   0  0  0  0  0  0  0  0  0  0  0  0
    1.3628   -3.0009   -2.8767 N   0  0  0  0  0  0  0  0  0  0  0  0
    0.6815   -2.7428   -4.1610 C   0  0  0  0  0  0  0  0  0  0  0  0
    0.0798   -1.3216   -4.1563 C   0  0  0  0  0  0  0  0  0  0  0  0
   -0.7425   -1.0898   -5.4407 C   0  0  0  0  0  0  0  0  0  0  0  0
   -1.7881   -2.1646   -5.6322 C   0  0  0  0  0  0  0  0  0  0  0  0
   -2.8265   -1.9895   -6.2506 O   0  0  0  0  0  0  0  0  0  0  0  0
   -1.4767   -3.4788   -5.2647 N   0  0  0  0  0  0  0  0  0  0  0  0
   -0.3540   -3.8155   -4.4938 C   0  0  0  0  0  0  0  0  0  0  0  0
   -0.1532   -5.0138   -4.3465 O   0  0  0  0  0  0  0  0  0  0  0  0
    2.7373   -3.2031   -2.7260 C   0  0  0  0  0  0  0  0  0  0  0  0
    3.5526   -2.7260   -3.5082 O   0  0  0  0  0  0  0  0  0  0  0  0
   -0.2688    1.1160    3.5004 H   0  0  0  0  0  0  0  0  0  0  0  0
    0.2640    2.8048    3.4769 H   0  0  0  0  0  0  0  0  0  0  0  0
   -0.8950    4.3673    1.7893 H   0  0  0  0  0  0  0  0  0  0  0  0
    0.3499    4.5216   -1.1584 H   0  0  0  0  0  0  0  0  0  0  0  0
    2.4111    5.2273    0.0467 H   0  0  0  0  0  0  0  0  0  0  0  0
    0.1052    8.0598    2.3405 H   0  0  0  0  0  0  0  0  0  0  0  0
   -4.5789    5.8073   -2.5520 H   0  0  0  0  0  0  0  0  0  0  0  0
   -3.9978    1.4795   -1.0978 H   0  0  0  0  0  0  0  0  0  0  0  0
   -4.6186   -0.7403   -0.2761 H   0  0  0  0  0  0  0  0  0  0  0  0
   -3.8035   -1.5654    1.9262 H   0  0  0  0  0  0  0  0  0  0  0  0
   -2.2925   -0.1199    3.3119 H   0  0  0  0  0  0  0  0  0  0  0  0
   -0.5708    0.3569    0.9090 H   0  0  0  0  0  0  0  0  0  0  0  0
    1.8288    0.3209   -0.6289 H   0  0  0  0  0  0  0  0  0  0  0  0
    0.8289   -1.0886   -0.2221 H   0  0  0  0  0  0  0  0  0  0  0  0
    3.1379    0.0773    1.4175 H   0  0  0  0  0  0  0  0  0  0  0  0
    3.0693   -1.5158    0.6234 H   0  0  0  0  0  0  0  0  0  0  0  0
    3.3267   -0.9146    3.7156 H   0  0  0  0  0  0  0  0  0  0  0  0
    3.4662   -2.4869    2.8960 H   0  0  0  0  0  0  0  0  0  0  0  0
    1.1458   -1.7718    4.7928 H   0  0  0  0  0  0  0  0  0  0  0  0
    2.6386   -2.5871    5.3019 H   0  0  0  0  0  0  0  0  0  0  0  0
   -0.6025   -3.7870    4.1945 H   0  0  0  0  0  0  0  0  0  0  0  0
   -0.0501   -2.7550    2.8630 H   0  0  0  0  0  0  0  0  0  0  0  0
    0.7312   -5.6877    2.7650 H   0  0  0  0  0  0  0  0  0  0  0  0
   -0.9620   -5.2802    2.4737 H   0  0  0  0  0  0  0  0  0  0  0  0
   -0.4135   -4.1593    0.4787 H   0  0  0  0  0  0  0  0  0  0  0  0
    2.8028   -5.0193    2.1712 H   0  0  0  0  0  0  0  0  0  0  0  0
    4.9919   -4.7541    1.0440 H   0  0  0  0  0  0  0  0  0  0  0  0
    5.1124   -3.8897   -1.3159 H   0  0  0  0  0  0  0  0  0  0  0  0
    1.4361   -2.7915   -4.9579 H   0  0  0  0  0  0  0  0  0  0  0  0
    0.8798   -0.5752   -4.0633 H   0  0  0  0  0  0  0  0  0  0  0  0
   -0.5733   -1.2040   -3.2810 H   0  0  0  0  0  0  0  0  0  0  0  0
   -1.2372   -0.1104   -5.3996 H   0  0  0  0  0  0  0  0  0  0  0  0
   -0.0823   -1.0726   -6.3163 H   0  0  0  0  0  0  0  0  0  0  0  0
   -2.1258   -4.2120   -5.5087 H   0  0  0  0  0  0  0  0  0  0  0  0
  1  2  2  0  0  0  0
  2  3  1  0  0  0  0
  2 28  1  0  0  0  0
  3  4  1  0  0  0  0
  3 57  1  0  0  0  0
  3 58  1  0  0  0  0
  4  5  1  0  0  0  0
  4 27  1  0  0  0  0
  5  6  2  0  0  0  0
  5 59  1  0  0  0  0
  6  7  1  0  0  0  0
  6 22  1  0  0  0  0
  7  8  2  0  0  0  0
  7 20  1  0  0  0  0
  8  9  1  0  0  0  0
  8 17  1  0  0  0  0
  9 10  2  0  0  0  0
  9 15  1  0  0  0  0
 10 11  1  0  0  0  0
 10 60  1  0  0  0  0
 11 12  2  0  0  0  0
 11 61  1  0  0  0  0
 12 13  1  0  0  0  0
 12 14  1  0  0  0  0
 14 15  2  0  0  0  0
 14 62  1  0  0  0  0
 15 16  1  0  0  0  0
 17 18  2  0  0  0  0
 17 19  1  0  0  0  0
 19 20  1  0  0  0  0
 19 63  1  0  0  0  0
 20 21  2  0  0  0  0
 22 23  2  0  0  0  0
 22 27  1  0  0  0  0
 23 24  1  0  0  0  0
 23 64  1  0  0  0  0
 24 25  2  0  0  0  0
 24 65  1  0  0  0  0
 25 26  1  0  0  0  0
 25 66  1  0  0  0  0
 26 27  2  0  0  0  0
 26 67  1  0  0  0  0
 28 29  1  0  0  0  0
 28 68  1  0  0  0  0
 29 30  1  0  0  0  0
 29 69  1  0  0  0  0
 29 70  1  0  0  0  0
 30 31  1  0  0  0  0
 30 71  1  0  0  0  0
 30 72  1  0  0  0  0
 31 32  1  0  0  0  0
 32 33  1  0  0  0  0
 32 73  1  0  0  0  0
 32 74  1  0  0  0  0
 33 34  1  0  0  0  0
 33 75  1  0  0  0  0
 33 76  1  0  0  0  0
 34 35  1  0  0  0  0
 35 36  1  0  0  0  0
 35 77  1  0  0  0  0
 35 78  1  0  0  0  0
 36 37  1  0  0  0  0
 36 79  1  0  0  0  0
 36 80  1  0  0  0  0
 37 38  1  0  0  0  0
 37 81  1  0  0  0  0
 38 39  2  0  0  0  0
 38 43  1  0  0  0  0
 39 40  1  0  0  0  0
 39 82  1  0  0  0  0
 40 41  2  0  0  0  0
 40 83  1  0  0  0  0
 41 42  1  0  0  0  0
 41 84  1  0  0  0  0
 42 43  2  0  0  0  0
 42 55  1  0  0  0  0
 43 44  1  0  0  0  0
 44 45  2  0  0  0  0
 44 46  1  0  0  0  0
 46 47  1  0  0  0  0
 46 55  1  0  0  0  0
 47 48  1  0  0  0  0
 47 53  1  0  0  0  0
 47 85  1  0  0  0  0
 48 49  1  0  0  0  0
 48 86  1  0  0  0  0
 48 87  1  0  0  0  0
 49 50  1  0  0  0  0
 49 88  1  0  0  0  0
 49 89  1  0  0  0  0
 50 51  2  0  0  0  0
 50 52  1  0  0  0  0
 52 53  1  0  0  0  0
 52 90  1  0  0  0  0
 53 54  2  0  0  0  0
 55 56  2  0  0  0  0
M  END
$$$$
protac3895RUN2
  chem.cr 07102519423D
protac3895RUN2
 90 96  0  0  0  0  0  0  0  0999 V2000
    1.8492    0.9041    1.9891 O   0  0  0  0  0  0  0  0  0  0  0  0
    0.8517    1.4345    2.4557 C   0  0  0  0  0  0  0  0  0  0  0  0
    0.2287    2.6859    1.8897 C   0  0  0  0  0  0  0  0  0  0  0  0
   -0.4631    2.4982    0.5971 N   0  0  0  0  0  0  0  0  0  0  0  0
   -0.6517    3.6415   -0.1900 C   0  0  0  0  0  0  0  0  0  0  0  0
   -1.8578    3.6470   -0.8031 C   0  0  0  0  0  0  0  0  0  0  0  0
   -2.3165    4.5485   -1.7297 C   0  0  0  0  0  0  0  0  0  0  0  0
   -1.7448    5.7417   -2.0408 C   0  0  0  0  0  0  0  0  0  0  0  0
   -0.6335    6.3049   -1.4450 C   0  0  0  0  0  0  0  0  0  0  0  0
    0.5851    6.3306   -2.1525 C   0  0  0  0  0  0  0  0  0  0  0  0
    1.7380    6.8758   -1.5627 C   0  0  0  0  0  0  0  0  0  0  0  0
    1.6714    7.4131   -0.2676 C   0  0  0  0  0  0  0  0  0  0  0  0
    3.1164    8.0928    0.4698 Cl  0  0  0  0  0  0  0  0  0  0  0  0
    0.4568    7.4102    0.4388 C   0  0  0  0  0  0  0  0  0  0  0  0
   -0.6977    6.8629   -0.1482 C   0  0  0  0  0  0  0  0  0  0  0  0
   -2.2113    6.8785    0.7604 Cl  0  0  0  0  0  0  0  0  0  0  0  0
   -2.4096    6.3830   -2.9994 C   0  0  0  0  0  0  0  0  0  0  0  0
   -2.2606    7.4696   -3.5460 O   0  0  0  0  0  0  0  0  0  0  0  0
   -3.4639    5.5851   -3.3915 N   0  0  0  0  0  0  0  0  0  0  0  0
   -3.3851    4.4657   -2.5669 C   0  0  0  0  0  0  0  0  0  0  0  0
   -4.2150    3.6046   -2.8161 O   0  0  0  0  0  0  0  0  0  0  0  0
   -2.4984    2.4851   -0.3351 C   0  0  0  0  0  0  0  0  0  0  0  0
   -3.8451    2.0606   -0.3740 C   0  0  0  0  0  0  0  0  0  0  0  0
   -4.2049    0.8328    0.2202 C   0  0  0  0  0  0  0  0  0  0  0  0
   -3.2494    0.0483    0.8950 C   0  0  0  0  0  0  0  0  0  0  0  0
   -1.9362    0.5227    1.0459 C   0  0  0  0  0  0  0  0  0  0  0  0
   -1.6105    1.7574    0.4657 C   0  0  0  0  0  0  0  0  0  0  0  0
    0.3006    0.9239    3.6446 N   0  0  0  0  0  0  0  0  0  0  0  0
    0.4785   -0.4818    4.0375 C   0  0  0  0  0  0  0  0  0  0  0  0
    1.7805   -0.7023    4.8361 C   0  0  0  0  0  0  0  0  0  0  0  0
    1.9332   -2.1006    5.1322 O   0  0  0  0  0  0  0  0  0  0  0  0
    2.1525   -2.9648    4.0038 C   0  0  0  0  0  0  0  0  0  0  0  0
    2.5958   -4.3350    4.5488 C   0  0  0  0  0  0  0  0  0  0  0  0
    2.5294   -5.2855    3.4755 O   0  0  0  0  0  0  0  0  0  0  0  0
    1.2340   -5.8457    3.2185 C   0  0  0  0  0  0  0  0  0  0  0  0
    1.2564   -6.4628    1.8090 C   0  0  0  0  0  0  0  0  0  0  0  0
    1.1054   -5.4183    0.7793 N   0  0  0  0  0  0  0  0  0  0  0  0
    2.1258   -4.7756    0.0847 C   0  0  0  0  0  0  0  0  0  0  0  0
    3.5039   -4.9971    0.3249 C   0  0  0  0  0  0  0  0  0  0  0  0
    4.4960   -4.3215   -0.4301 C   0  0  0  0  0  0  0  0  0  0  0  0
    4.1317   -3.4068   -1.4402 C   0  0  0  0  0  0  0  0  0  0  0  0
    2.7670   -3.1861   -1.6583 C   0  0  0  0  0  0  0  0  0  0  0  0
    1.7927   -3.8549   -0.9168 C   0  0  0  0  0  0  0  0  0  0  0  0
    0.5600   -3.4369   -1.3668 C   0  0  0  0  0  0  0  0  0  0  0  0
   -0.5374   -3.6365   -0.8546 O   0  0  0  0  0  0  0  0  0  0  0  0
    0.7530   -2.4784   -2.3718 N   0  0  0  0  0  0  0  0  0  0  0  0
   -0.2593   -2.0621   -3.3616 C   0  0  0  0  0  0  0  0  0  0  0  0
   -1.2881   -1.1088   -2.7181 C   0  0  0  0  0  0  0  0  0  0  0  0
   -2.3561   -0.7216   -3.7627 C   0  0  0  0  0  0  0  0  0  0  0  0
   -2.9875   -1.9416   -4.3966 C   0  0  0  0  0  0  0  0  0  0  0  0
   -4.1134   -1.9490   -4.8713 O   0  0  0  0  0  0  0  0  0  0  0  0
   -2.1931   -3.0722   -4.6294 N   0  0  0  0  0  0  0  0  0  0  0  0
   -0.9331   -3.2532   -4.0394 C   0  0  0  0  0  0  0  0  0  0  0  0
   -0.3511   -4.2901   -4.3311 O   0  0  0  0  0  0  0  0  0  0  0  0
    2.1354   -2.3563   -2.5537 C   0  0  0  0  0  0  0  0  0  0  0  0
    2.6320   -1.6311   -3.4088 O   0  0  0  0  0  0  0  0  0  0  0  0
   -0.4887    3.1087    2.6016 H   0  0  0  0  0  0  0  0  0  0  0  0
    1.0323    3.4165    1.7506 H   0  0  0  0  0  0  0  0  0  0  0  0
    0.1884    4.3210   -0.2895 H   0  0  0  0  0  0  0  0  0  0  0  0
    0.6339    5.9156   -3.1559 H   0  0  0  0  0  0  0  0  0  0  0  0
    2.6773    6.8854   -2.1100 H   0  0  0  0  0  0  0  0  0  0  0  0
    0.4076    7.8359    1.4368 H   0  0  0  0  0  0  0  0  0  0  0  0
   -4.3129    5.9210   -3.8163 H   0  0  0  0  0  0  0  0  0  0  0  0
   -4.6329    2.6659   -0.7910 H   0  0  0  0  0  0  0  0  0  0  0  0
   -5.2376    0.4952    0.1698 H   0  0  0  0  0  0  0  0  0  0  0  0
   -3.5373   -0.9043    1.3330 H   0  0  0  0  0  0  0  0  0  0  0  0
   -1.2038   -0.0573    1.5942 H   0  0  0  0  0  0  0  0  0  0  0  0
   -0.3930    1.4794    4.1300 H   0  0  0  0  0  0  0  0  0  0  0  0
    0.4967   -1.0864    3.1213 H   0  0  0  0  0  0  0  0  0  0  0  0
   -0.3760   -0.8078    4.6450 H   0  0  0  0  0  0  0  0  0  0  0  0
    1.7339   -0.1235    5.7682 H   0  0  0  0  0  0  0  0  0  0  0  0
    2.6402   -0.3363    4.2593 H   0  0  0  0  0  0  0  0  0  0  0  0
    2.9399   -2.5705    3.3489 H   0  0  0  0  0  0  0  0  0  0  0  0
    1.2376   -3.0791    3.4118 H   0  0  0  0  0  0  0  0  0  0  0  0
    1.9554   -4.6396    5.3866 H   0  0  0  0  0  0  0  0  0  0  0  0
    3.6262   -4.2506    4.9189 H   0  0  0  0  0  0  0  0  0  0  0  0
    1.0141   -6.6260    3.9593 H   0  0  0  0  0  0  0  0  0  0  0  0
    0.4381   -5.0919    3.2739 H   0  0  0  0  0  0  0  0  0  0  0  0
    2.1825   -7.0334    1.6641 H   0  0  0  0  0  0  0  0  0  0  0  0
    0.4196   -7.1679    1.7211 H   0  0  0  0  0  0  0  0  0  0  0  0
    0.1657   -5.1431    0.5126 H   0  0  0  0  0  0  0  0  0  0  0  0
    3.8204   -5.6855    1.1012 H   0  0  0  0  0  0  0  0  0  0  0  0
    5.5484   -4.5109   -0.2314 H   0  0  0  0  0  0  0  0  0  0  0  0
    4.8801   -2.8829   -2.0302 H   0  0  0  0  0  0  0  0  0  0  0  0
    0.2580   -1.5096   -4.1556 H   0  0  0  0  0  0  0  0  0  0  0  0
   -0.7893   -0.2154   -2.3162 H   0  0  0  0  0  0  0  0  0  0  0  0
   -1.7751   -1.6100   -1.8702 H   0  0  0  0  0  0  0  0  0  0  0  0
   -3.1358   -0.1122   -3.2899 H   0  0  0  0  0  0  0  0  0  0  0  0
   -1.9095   -0.0968   -4.5473 H   0  0  0  0  0  0  0  0  0  0  0  0
   -2.5939   -3.8405   -5.1449 H   0  0  0  0  0  0  0  0  0  0  0  0
  1  2  2  0  0  0  0
  2  3  1  0  0  0  0
  2 28  1  0  0  0  0
  3  4  1  0  0  0  0
  3 57  1  0  0  0  0
  3 58  1  0  0  0  0
  4  5  1  0  0  0  0
  4 27  1  0  0  0  0
  5  6  2  0  0  0  0
  5 59  1  0  0  0  0
  6  7  1  0  0  0  0
  6 22  1  0  0  0  0
  7  8  2  0  0  0  0
  7 20  1  0  0  0  0
  8  9  1  0  0  0  0
  8 17  1  0  0  0  0
  9 10  2  0  0  0  0
  9 15  1  0  0  0  0
 10 11  1  0  0  0  0
 10 60  1  0  0  0  0
 11 12  2  0  0  0  0
 11 61  1  0  0  0  0
 12 13  1  0  0  0  0
 12 14  1  0  0  0  0
 14 15  2  0  0  0  0
 14 62  1  0  0  0  0
 15 16  1  0  0  0  0
 17 18  2  0  0  0  0
 17 19  1  0  0  0  0
 19 20  1  0  0  0  0
 19 63  1  0  0  0  0
 20 21  2  0  0  0  0
 22 23  2  0  0  0  0
 22 27  1  0  0  0  0
 23 24  1  0  0  0  0
 23 64  1  0  0  0  0
 24 25  2  0  0  0  0
 24 65  1  0  0  0  0
 25 26  1  0  0  0  0
 25 66  1  0  0  0  0
 26 27  2  0  0  0  0
 26 67  1  0  0  0  0
 28 29  1  0  0  0  0
 28 68  1  0  0  0  0
 29 30  1  0  0  0  0
 29 69  1  0  0  0  0
 29 70  1  0  0  0  0
 30 31  1  0  0  0  0
 30 71  1  0  0  0  0
 30 72  1  0  0  0  0
 31 32  1  0  0  0  0
 32 33  1  0  0  0  0
 32 73  1  0  0  0  0
 32 74  1  0  0  0  0
 33 34  1  0  0  0  0
 33 75  1  0  0  0  0
 33 76  1  0  0  0  0
 34 35  1  0  0  0  0
 35 36  1  0  0  0  0
 35 77  1  0  0  0  0
 35 78  1  0  0  0  0
 36 37  1  0  0  0  0
 36 79  1  0  0  0  0
 36 80  1  0  0  0  0
 37 38  1  0  0  0  0
 37 81  1  0  0  0  0
 38 39  2  0  0  0  0
 38 43  1  0  0  0  0
 39 40  1  0  0  0  0
 39 82  1  0  0  0  0
 40 41  2  0  0  0  0
 40 83  1  0  0  0  0
 41 42  1  0  0  0  0
 41 84  1  0  0  0  0
 42 43  2  0  0  0  0
 42 55  1  0  0  0  0
 43 44  1  0  0  0  0
 44 45  2  0  0  0  0
 44 46  1  0  0  0  0
 46 47  1  0  0  0  0
 46 55  1  0  0  0  0
 47 48  1  0  0  0  0
 47 53  1  0  0  0  0
 47 85  1  0  0  0  0
 48 49  1  0  0  0  0
 48 86  1  0  0  0  0
 48 87  1  0  0  0  0
 49 50  1  0  0  0  0
 49 88  1  0  0  0  0
 49 89  1  0  0  0  0
 50 51  2  0  0  0  0
 50 52  1  0  0  0  0
 52 53  1  0  0  0  0
 52 90  1  0  0  0  0
 53 54  2  0  0  0  0
 55 56  2  0  0  0  0
M  END
$$$$
protac3895RUN2
  chem.cr 07102519423D
protac3895RUN2
 90 96  0  0  0  0  0  0  0  0999 V2000
    1.0584   -1.3424   -4.7478 O   0  0  0  0  0  0  0  0  0  0  0  0
    0.7087   -0.8875   -3.6671 C   0  0  0  0  0  0  0  0  0  0  0  0
   -0.7378   -0.6763   -3.2966 C   0  0  0  0  0  0  0  0  0  0  0  0
   -1.0523    0.7189   -2.9672 N   0  0  0  0  0  0  0  0  0  0  0  0
   -1.1216    1.7075   -3.9431 C   0  0  0  0  0  0  0  0  0  0  0  0
   -1.8009    2.7907   -3.4970 C   0  0  0  0  0  0  0  0  0  0  0  0
   -2.1409    3.9002   -4.2365 C   0  0  0  0  0  0  0  0  0  0  0  0
   -1.7167    4.1905   -5.5002 C   0  0  0  0  0  0  0  0  0  0  0  0
   -0.8553    3.4473   -6.2848 C   0  0  0  0  0  0  0  0  0  0  0  0
   -1.4025    2.6380   -7.2959 C   0  0  0  0  0  0  0  0  0  0  0  0
   -0.5715    1.8235   -8.0857 C   0  0  0  0  0  0  0  0  0  0  0  0
    0.8170    1.8294   -7.8741 C   0  0  0  0  0  0  0  0  0  0  0  0
    1.8550    0.7930   -8.8449 Cl  0  0  0  0  0  0  0  0  0  0  0  0
    1.3762    2.6543   -6.8831 C   0  0  0  0  0  0  0  0  0  0  0  0
    0.5459    3.4679   -6.0946 C   0  0  0  0  0  0  0  0  0  0  0  0
    1.2724    4.4852   -4.8521 Cl  0  0  0  0  0  0  0  0  0  0  0  0
   -2.2420    5.3251   -5.9579 C   0  0  0  0  0  0  0  0  0  0  0  0
   -2.1299    5.9417   -7.0113 O   0  0  0  0  0  0  0  0  0  0  0  0
   -3.0841    5.8240   -4.9894 N   0  0  0  0  0  0  0  0  0  0  0  0
   -2.9856    4.9237   -3.9338 C   0  0  0  0  0  0  0  0  0  0  0  0
   -3.7277    5.1810   -2.9998 O   0  0  0  0  0  0  0  0  0  0  0  0
   -2.1279    2.4738   -2.1495 C   0  0  0  0  0  0  0  0  0  0  0  0
   -2.6259    3.2363   -1.0655 C   0  0  0  0  0  0  0  0  0  0  0  0
   -2.8005    2.6341    0.2015 C   0  0  0  0  0  0  0  0  0  0  0  0
   -2.4347    1.2913    0.4262 C   0  0  0  0  0  0  0  0  0  0  0  0
   -1.8421    0.5508   -0.6085 C   0  0  0  0  0  0  0  0  0  0  0  0
   -1.7017    1.1688   -1.8606 C   0  0  0  0  0  0  0  0  0  0  0  0
    1.6700   -0.6348   -2.6717 N   0  0  0  0  0  0  0  0  0  0  0  0
    3.1102   -0.8781   -2.8704 C   0  0  0  0  0  0  0  0  0  0  0  0
    3.5539   -2.2670   -2.3690 C   0  0  0  0  0  0  0  0  0  0  0  0
    3.6374   -2.2255   -0.9371 O   0  0  0  0  0  0  0  0  0  0  0  0
    4.3962   -3.3015   -0.3606 C   0  0  0  0  0  0  0  0  0  0  0  0
    4.5020   -3.0770    1.1634 C   0  0  0  0  0  0  0  0  0  0  0  0
    3.5823   -3.9419    1.8562 O   0  0  0  0  0  0  0  0  0  0  0  0
    2.1879   -3.6411    1.7193 C   0  0  0  0  0  0  0  0  0  0  0  0
    1.4246   -4.6354    2.6228 C   0  0  0  0  0  0  0  0  0  0  0  0
    0.5979   -3.9101    3.6021 N   0  0  0  0  0  0  0  0  0  0  0  0
   -0.6047   -3.2748    3.3099 C   0  0  0  0  0  0  0  0  0  0  0  0
   -1.4844   -3.7128    2.2907 C   0  0  0  0  0  0  0  0  0  0  0  0
   -2.6950   -3.0224    2.0216 C   0  0  0  0  0  0  0  0  0  0  0  0
   -3.0423   -1.8722    2.7584 C   0  0  0  0  0  0  0  0  0  0  0  0
   -2.1692   -1.4548    3.7696 C   0  0  0  0  0  0  0  0  0  0  0  0
   -0.9904   -2.1444    4.0409 C   0  0  0  0  0  0  0  0  0  0  0  0
   -0.3504   -1.4956    5.0738 C   0  0  0  0  0  0  0  0  0  0  0  0
    0.8191   -1.6196    5.4115 O   0  0  0  0  0  0  0  0  0  0  0  0
   -1.1165   -0.3805    5.4530 N   0  0  0  0  0  0  0  0  0  0  0  0
   -1.1245    0.2196    6.8063 C   0  0  0  0  0  0  0  0  0  0  0  0
   -0.2612    1.4991    6.8746 C   0  0  0  0  0  0  0  0  0  0  0  0
    1.2384    1.1544    7.0207 C   0  0  0  0  0  0  0  0  0  0  0  0
    1.4942    0.1820    8.1501 C   0  0  0  0  0  0  0  0  0  0  0  0
    2.5026    0.2019    8.8388 O   0  0  0  0  0  0  0  0  0  0  0  0
    0.4910   -0.7224    8.5204 N   0  0  0  0  0  0  0  0  0  0  0  0
   -0.7611   -0.7853    7.8933 C   0  0  0  0  0  0  0  0  0  0  0  0
   -1.5497   -1.6086    8.3339 O   0  0  0  0  0  0  0  0  0  0  0  0
   -2.2504   -0.3892    4.6317 C   0  0  0  0  0  0  0  0  0  0  0  0
   -3.0544    0.5368    4.6148 O   0  0  0  0  0  0  0  0  0  0  0  0
   -1.3656   -0.9747   -4.1449 H   0  0  0  0  0  0  0  0  0  0  0  0
   -0.9900   -1.3247   -2.4540 H   0  0  0  0  0  0  0  0  0  0  0  0
   -0.7082    1.4716   -4.9188 H   0  0  0  0  0  0  0  0  0  0  0  0
   -2.4789    2.6301   -7.4562 H   0  0  0  0  0  0  0  0  0  0  0  0
   -1.0069    1.1888   -8.8534 H   0  0  0  0  0  0  0  0  0  0  0  0
    2.4488    2.6515   -6.7271 H   0  0  0  0  0  0  0  0  0  0  0  0
   -3.3543    6.7893   -4.8956 H   0  0  0  0  0  0  0  0  0  0  0  0
   -2.8353    4.2894   -1.1359 H   0  0  0  0  0  0  0  0  0  0  0  0
   -3.1962    3.2236    1.0260 H   0  0  0  0  0  0  0  0  0  0  0  0
   -2.5605    0.8512    1.4131 H   0  0  0  0  0  0  0  0  0  0  0  0
   -1.4896   -0.4611   -0.4253 H   0  0  0  0  0  0  0  0  0  0  0  0
    1.3586   -0.2358   -1.7925 H   0  0  0  0  0  0  0  0  0  0  0  0
    3.6897   -0.1028   -2.3549 H   0  0  0  0  0  0  0  0  0  0  0  0
    3.3400   -0.7994   -3.9416 H   0  0  0  0  0  0  0  0  0  0  0  0
    4.5376   -2.4945   -2.8012 H   0  0  0  0  0  0  0  0  0  0  0  0
    2.8485   -3.0399   -2.7052 H   0  0  0  0  0  0  0  0  0  0  0  0
    5.4096   -3.3101   -0.7800 H   0  0  0  0  0  0  0  0  0  0  0  0
    3.9316   -4.2752   -0.5669 H   0  0  0  0  0  0  0  0  0  0  0  0
    4.3191   -2.0212    1.4091 H   0  0  0  0  0  0  0  0  0  0  0  0
    5.5261   -3.3164    1.4775 H   0  0  0  0  0  0  0  0  0  0  0  0
    1.9918   -2.6073    2.0338 H   0  0  0  0  0  0  0  0  0  0  0  0
    1.8591   -3.7525    0.6780 H   0  0  0  0  0  0  0  0  0  0  0  0
    0.8145   -5.3054    2.0067 H   0  0  0  0  0  0  0  0  0  0  0  0
    2.1468   -5.2648    3.1610 H   0  0  0  0  0  0  0  0  0  0  0  0
    1.0846   -3.5327    4.4102 H   0  0  0  0  0  0  0  0  0  0  0  0
   -1.2460   -4.5958    1.7090 H   0  0  0  0  0  0  0  0  0  0  0  0
   -3.3644   -3.3841    1.2435 H   0  0  0  0  0  0  0  0  0  0  0  0
   -3.9614   -1.3249    2.5582 H   0  0  0  0  0  0  0  0  0  0  0  0
   -2.1595    0.5221    7.0172 H   0  0  0  0  0  0  0  0  0  0  0  0
   -0.5784    2.0883    7.7469 H   0  0  0  0  0  0  0  0  0  0  0  0
   -0.4350    2.1214    5.9860 H   0  0  0  0  0  0  0  0  0  0  0  0
    1.6217    0.7268    6.0861 H   0  0  0  0  0  0  0  0  0  0  0  0
    1.8155    2.0698    7.2000 H   0  0  0  0  0  0  0  0  0  0  0  0
    0.6970   -1.3931    9.2452 H   0  0  0  0  0  0  0  0  0  0  0  0
  1  2  2  0  0  0  0
  2  3  1  0  0  0  0
  2 28  1  0  0  0  0
  3  4  1  0  0  0  0
  3 57  1  0  0  0  0
  3 58  1  0  0  0  0
  4  5  1  0  0  0  0
  4 27  1  0  0  0  0
  5  6  2  0  0  0  0
  5 59  1  0  0  0  0
  6  7  1  0  0  0  0
  6 22  1  0  0  0  0
  7  8  2  0  0  0  0
  7 20  1  0  0  0  0
  8  9  1  0  0  0  0
  8 17  1  0  0  0  0
  9 10  2  0  0  0  0
  9 15  1  0  0  0  0
 10 11  1  0  0  0  0
 10 60  1  0  0  0  0
 11 12  2  0  0  0  0
 11 61  1  0  0  0  0
 12 13  1  0  0  0  0
 12 14  1  0  0  0  0
 14 15  2  0  0  0  0
 14 62  1  0  0  0  0
 15 16  1  0  0  0  0
 17 18  2  0  0  0  0
 17 19  1  0  0  0  0
 19 20  1  0  0  0  0
 19 63  1  0  0  0  0
 20 21  2  0  0  0  0
 22 23  2  0  0  0  0
 22 27  1  0  0  0  0
 23 24  1  0  0  0  0
 23 64  1  0  0  0  0
 24 25  2  0  0  0  0
 24 65  1  0  0  0  0
 25 26  1  0  0  0  0
 25 66  1  0  0  0  0
 26 27  2  0  0  0  0
 26 67  1  0  0  0  0
 28 29  1  0  0  0  0
 28 68  1  0  0  0  0
 29 30  1  0  0  0  0
 29 69  1  0  0  0  0
 29 70  1  0  0  0  0
 30 31  1  0  0  0  0
 30 71  1  0  0  0  0
 30 72  1  0  0  0  0
 31 32  1  0  0  0  0
 32 33  1  0  0  0  0
 32 73  1  0  0  0  0
 32 74  1  0  0  0  0
 33 34  1  0  0  0  0
 33 75  1  0  0  0  0
 33 76  1  0  0  0  0
 34 35  1  0  0  0  0
 35 36  1  0  0  0  0
 35 77  1  0  0  0  0
 35 78  1  0  0  0  0
 36 37  1  0  0  0  0
 36 79  1  0  0  0  0
 36 80  1  0  0  0  0
 37 38  1  0  0  0  0
 37 81  1  0  0  0  0
 38 39  2  0  0  0  0
 38 43  1  0  0  0  0
 39 40  1  0  0  0  0
 39 82  1  0  0  0  0
 40 41  2  0  0  0  0
 40 83  1  0  0  0  0
 41 42  1  0  0  0  0
 41 84  1  0  0  0  0
 42 43  2  0  0  0  0
 42 55  1  0  0  0  0
 43 44  1  0  0  0  0
 44 45  2  0  0  0  0
 44 46  1  0  0  0  0
 46 47  1  0  0  0  0
 46 55  1  0  0  0  0
 47 48  1  0  0  0  0
 47 53  1  0  0  0  0
 47 85  1  0  0  0  0
 48 49  1  0  0  0  0
 48 86  1  0  0  0  0
 48 87  1  0  0  0  0
 49 50  1  0  0  0  0
 49 88  1  0  0  0  0
 49 89  1  0  0  0  0
 50 51  2  0  0  0  0
 50 52  1  0  0  0  0
 52 53  1  0  0  0  0
 52 90  1  0  0  0  0
 53 54  2  0  0  0  0
 55 56  2  0  0  0  0
M  END
$$$$
protac3895RUN2
  chem.cr 07102519423D
protac3895RUN2
 90 96  0  0  0  0  0  0  0  0999 V2000
    1.3000   -0.7009   -6.0283 O   0  0  0  0  0  0  0  0  0  0  0  0
    1.0693   -0.3558   -4.8774 C   0  0  0  0  0  0  0  0  0  0  0  0
    0.5106    0.9926   -4.4959 C   0  0  0  0  0  0  0  0  0  0  0  0
   -0.8146    1.2706   -5.0712 N   0  0  0  0  0  0  0  0  0  0  0  0
   -0.9338    2.2855   -6.0235 C   0  0  0  0  0  0  0  0  0  0  0  0
   -2.0611    3.0081   -5.8401 C   0  0  0  0  0  0  0  0  0  0  0  0
   -2.4021    4.1928   -6.4455 C   0  0  0  0  0  0  0  0  0  0  0  0
   -1.7191    4.8128   -7.4422 C   0  0  0  0  0  0  0  0  0  0  0  0
   -0.5462    4.3955   -8.0353 C   0  0  0  0  0  0  0  0  0  0  0  0
   -0.5928    3.6342   -9.2188 C   0  0  0  0  0  0  0  0  0  0  0  0
    0.5959    3.2007   -9.8302 C   0  0  0  0  0  0  0  0  0  0  0  0
    1.8388    3.5381   -9.2680 C   0  0  0  0  0  0  0  0  0  0  0  0
    3.3258    2.9934  -10.0342 Cl  0  0  0  0  0  0  0  0  0  0  0  0
    1.8952    4.3079   -8.0946 C   0  0  0  0  0  0  0  0  0  0  0  0
    0.7079    4.7364   -7.4781 C   0  0  0  0  0  0  0  0  0  0  0  0
    0.8086    5.6632   -5.9823 Cl  0  0  0  0  0  0  0  0  0  0  0  0
   -2.2785    5.9740   -7.7828 C   0  0  0  0  0  0  0  0  0  0  0  0
   -1.9754    6.8502   -8.5820 O   0  0  0  0  0  0  0  0  0  0  0  0
   -3.4073    6.1527   -7.0088 N   0  0  0  0  0  0  0  0  0  0  0  0
   -3.4131    5.0528   -6.1547 C   0  0  0  0  0  0  0  0  0  0  0  0
   -4.2499    5.1234   -5.2666 O   0  0  0  0  0  0  0  0  0  0  0  0
   -2.7666    2.3185   -4.8343 C   0  0  0  0  0  0  0  0  0  0  0  0
   -4.1204    2.3433   -4.4303 C   0  0  0  0  0  0  0  0  0  0  0  0
   -4.5601    1.4680   -3.4124 C   0  0  0  0  0  0  0  0  0  0  0  0
   -3.6878    0.5132   -2.8497 C   0  0  0  0  0  0  0  0  0  0  0  0
   -2.3739    0.3959   -3.3367 C   0  0  0  0  0  0  0  0  0  0  0  0
   -1.9594    1.2955   -4.3269 C   0  0  0  0  0  0  0  0  0  0  0  0
    1.7262   -1.0181   -3.8371 N   0  0  0  0  0  0  0  0  0  0  0  0
    2.3376   -2.3497   -3.9312 C   0  0  0  0  0  0  0  0  0  0  0  0
    2.0916   -3.1036   -2.6115 C   0  0  0  0  0  0  0  0  0  0  0  0
    2.4457   -2.1908   -1.5558 O   0  0  0  0  0  0  0  0  0  0  0  0
    1.9814   -2.5096   -0.2394 C   0  0  0  0  0  0  0  0  0  0  0  0
    2.8680   -3.6256    0.3508 C   0  0  0  0  0  0  0  0  0  0  0  0
    2.5146   -3.8464    1.7269 O   0  0  0  0  0  0  0  0  0  0  0  0
    2.7883   -2.7769    2.6487 C   0  0  0  0  0  0  0  0  0  0  0  0
    2.5328   -3.3354    4.0598 C   0  0  0  0  0  0  0  0  0  0  0  0
    1.7720   -2.3866    4.8863 N   0  0  0  0  0  0  0  0  0  0  0  0
    0.3855   -2.4028    4.9715 C   0  0  0  0  0  0  0  0  0  0  0  0
   -0.4405   -2.8268    3.9024 C   0  0  0  0  0  0  0  0  0  0  0  0
   -1.8508   -2.8476    4.0337 C   0  0  0  0  0  0  0  0  0  0  0  0
   -2.4635   -2.4482    5.2400 C   0  0  0  0  0  0  0  0  0  0  0  0
   -1.6352   -2.0310    6.2882 C   0  0  0  0  0  0  0  0  0  0  0  0
   -0.2486   -2.0076    6.1563 C   0  0  0  0  0  0  0  0  0  0  0  0
    0.2834   -1.5943    7.3564 C   0  0  0  0  0  0  0  0  0  0  0  0
    1.4453   -1.2854    7.5929 O   0  0  0  0  0  0  0  0  0  0  0  0
   -0.7664   -1.3120    8.2411 N   0  0  0  0  0  0  0  0  0  0  0  0
   -0.6617   -1.2200    9.7132 C   0  0  0  0  0  0  0  0  0  0  0  0
    0.0375    0.0960   10.1552 C   0  0  0  0  0  0  0  0  0  0  0  0
    1.4826   -0.1402   10.6522 C   0  0  0  0  0  0  0  0  0  0  0  0
    1.5257   -1.2405   11.6826 C   0  0  0  0  0  0  0  0  0  0  0  0
    2.2544   -1.2354   12.6622 O   0  0  0  0  0  0  0  0  0  0  0  0
    0.7844   -2.3957   11.4282 N   0  0  0  0  0  0  0  0  0  0  0  0
   -0.0737   -2.4931   10.3250 C   0  0  0  0  0  0  0  0  0  0  0  0
   -0.5358   -3.6065   10.1165 O   0  0  0  0  0  0  0  0  0  0  0  0
   -1.9527   -1.6157    7.5597 C   0  0  0  0  0  0  0  0  0  0  0  0
   -3.0615   -1.4392    8.0500 O   0  0  0  0  0  0  0  0  0  0  0  0
    0.4311    1.0676   -3.4050 H   0  0  0  0  0  0  0  0  0  0  0  0
    1.2173    1.7622   -4.8243 H   0  0  0  0  0  0  0  0  0  0  0  0
   -0.0914    2.4336   -6.6891 H   0  0  0  0  0  0  0  0  0  0  0  0
   -1.5546    3.3791   -9.6577 H   0  0  0  0  0  0  0  0  0  0  0  0
    0.5524    2.6068  -10.7400 H   0  0  0  0  0  0  0  0  0  0  0  0
    2.8573    4.5737   -7.6638 H   0  0  0  0  0  0  0  0  0  0  0  0
   -3.7520    7.0589   -6.7324 H   0  0  0  0  0  0  0  0  0  0  0  0
   -4.8595    2.9630   -4.9153 H   0  0  0  0  0  0  0  0  0  0  0  0
   -5.5961    1.5048   -3.0863 H   0  0  0  0  0  0  0  0  0  0  0  0
   -4.0518   -0.1707   -2.0862 H   0  0  0  0  0  0  0  0  0  0  0  0
   -1.7168   -0.3943   -2.9852 H   0  0  0  0  0  0  0  0  0  0  0  0
    1.6907   -0.6081   -2.9125 H   0  0  0  0  0  0  0  0  0  0  0  0
    3.4176   -2.2356   -4.0943 H   0  0  0  0  0  0  0  0  0  0  0  0
    1.9137   -2.9042   -4.7793 H   0  0  0  0  0  0  0  0  0  0  0  0
    2.6915   -4.0233   -2.5719 H   0  0  0  0  0  0  0  0  0  0  0  0
    1.0282   -3.3719   -2.5527 H   0  0  0  0  0  0  0  0  0  0  0  0
    0.9288   -2.8227   -0.2547 H   0  0  0  0  0  0  0  0  0  0  0  0
    2.0576   -1.6090    0.3794 H   0  0  0  0  0  0  0  0  0  0  0  0
    3.9251   -3.3426    0.2671 H   0  0  0  0  0  0  0  0  0  0  0  0
    2.7166   -4.5499   -0.2204 H   0  0  0  0  0  0  0  0  0  0  0  0
    3.8272   -2.4321    2.5640 H   0  0  0  0  0  0  0  0  0  0  0  0
    2.1244   -1.9205    2.4644 H   0  0  0  0  0  0  0  0  0  0  0  0
    1.9785   -4.2806    3.9883 H   0  0  0  0  0  0  0  0  0  0  0  0
    3.4949   -3.5607    4.5376 H   0  0  0  0  0  0  0  0  0  0  0  0
    2.2429   -1.9663    5.6820 H   0  0  0  0  0  0  0  0  0  0  0  0
    0.0043   -3.1390    2.9632 H   0  0  0  0  0  0  0  0  0  0  0  0
   -2.4652   -3.1750    3.1991 H   0  0  0  0  0  0  0  0  0  0  0  0
   -3.5440   -2.4668    5.3611 H   0  0  0  0  0  0  0  0  0  0  0  0
   -1.6899   -1.1681   10.0945 H   0  0  0  0  0  0  0  0  0  0  0  0
   -0.5450    0.5426   10.9719 H   0  0  0  0  0  0  0  0  0  0  0  0
    0.0290    0.8270    9.3353 H   0  0  0  0  0  0  0  0  0  0  0  0
    2.1381   -0.4182    9.8201 H   0  0  0  0  0  0  0  0  0  0  0  0
    1.8943    0.7839   11.0767 H   0  0  0  0  0  0  0  0  0  0  0  0
    0.9511   -3.2177   11.9894 H   0  0  0  0  0  0  0  0  0  0  0  0
  1  2  2  0  0  0  0
  2  3  1  0  0  0  0
  2 28  1  0  0  0  0
  3  4  1  0  0  0  0
  3 57  1  0  0  0  0
  3 58  1  0  0  0  0
  4  5  1  0  0  0  0
  4 27  1  0  0  0  0
  5  6  2  0  0  0  0
  5 59  1  0  0  0  0
  6  7  1  0  0  0  0
  6 22  1  0  0  0  0
  7  8  2  0  0  0  0
  7 20  1  0  0  0  0
  8  9  1  0  0  0  0
  8 17  1  0  0  0  0
  9 10  2  0  0  0  0
  9 15  1  0  0  0  0
 10 11  1  0  0  0  0
 10 60  1  0  0  0  0
 11 12  2  0  0  0  0
 11 61  1  0  0  0  0
 12 13  1  0  0  0  0
 12 14  1  0  0  0  0
 14 15  2  0  0  0  0
 14 62  1  0  0  0  0
 15 16  1  0  0  0  0
 17 18  2  0  0  0  0
 17 19  1  0  0  0  0
 19 20  1  0  0  0  0
 19 63  1  0  0  0  0
 20 21  2  0  0  0  0
 22 23  2  0  0  0  0
 22 27  1  0  0  0  0
 23 24  1  0  0  0  0
 23 64  1  0  0  0  0
 24 25  2  0  0  0  0
 24 65  1  0  0  0  0
 25 26  1  0  0  0  0
 25 66  1  0  0  0  0
 26 27  2  0  0  0  0
 26 67  1  0  0  0  0
 28 29  1  0  0  0  0
 28 68  1  0  0  0  0
 29 30  1  0  0  0  0
 29 69  1  0  0  0  0
 29 70  1  0  0  0  0
 30 31  1  0  0  0  0
 30 71  1  0  0  0  0
 30 72  1  0  0  0  0
 31 32  1  0  0  0  0
 32 33  1  0  0  0  0
 32 73  1  0  0  0  0
 32 74  1  0  0  0  0
 33 34  1  0  0  0  0
 33 75  1  0  0  0  0
 33 76  1  0  0  0  0
 34 35  1  0  0  0  0
 35 36  1  0  0  0  0
 35 77  1  0  0  0  0
 35 78  1  0  0  0  0
 36 37  1  0  0  0  0
 36 79  1  0  0  0  0
 36 80  1  0  0  0  0
 37 38  1  0  0  0  0
 37 81  1  0  0  0  0
 38 39  2  0  0  0  0
 38 43  1  0  0  0  0
 39 40  1  0  0  0  0
 39 82  1  0  0  0  0
 40 41  2  0  0  0  0
 40 83  1  0  0  0  0
 41 42  1  0  0  0  0
 41 84  1  0  0  0  0
 42 43  2  0  0  0  0
 42 55  1  0  0  0  0
 43 44  1  0  0  0  0
 44 45  2  0  0  0  0
 44 46  1  0  0  0  0
 46 47  1  0  0  0  0
 46 55  1  0  0  0  0
 47 48  1  0  0  0  0
 47 53  1  0  0  0  0
 47 85  1  0  0  0  0
 48 49  1  0  0  0  0
 48 86  1  0  0  0  0
 48 87  1  0  0  0  0
 49 50  1  0  0  0  0
 49 88  1  0  0  0  0
 49 89  1  0  0  0  0
 50 51  2  0  0  0  0
 50 52  1  0  0  0  0
 52 53  1  0  0  0  0
 52 90  1  0  0  0  0
 53 54  2  0  0  0  0
 55 56  2  0  0  0  0
M  END
$$$$
protac3895RUN2
  chem.cr 07102519423D
protac3895RUN2
 90 96  0  0  0  0  0  0  0  0999 V2000
   -5.0194   -1.1810    2.2895 O   0  0  0  0  0  0  0  0  0  0  0  0
   -4.4604   -0.6380    3.2330 C   0  0  0  0  0  0  0  0  0  0  0  0
   -4.6224   -1.1076    4.6662 C   0  0  0  0  0  0  0  0  0  0  0  0
   -3.3556   -1.2207    5.4212 N   0  0  0  0  0  0  0  0  0  0  0  0
   -2.4407   -2.1831    4.9909 C   0  0  0  0  0  0  0  0  0  0  0  0
   -1.1708   -1.7153    4.9802 C   0  0  0  0  0  0  0  0  0  0  0  0
   -0.0266   -2.4203    4.6927 C   0  0  0  0  0  0  0  0  0  0  0  0
    0.0339   -3.6993    4.2417 C   0  0  0  0  0  0  0  0  0  0  0  0
   -1.0279   -4.5486    4.0042 C   0  0  0  0  0  0  0  0  0  0  0  0
   -1.7209   -4.4909    2.7789 C   0  0  0  0  0  0  0  0  0  0  0  0
   -2.8206   -5.3369    2.5493 C   0  0  0  0  0  0  0  0  0  0  0  0
   -3.2236   -6.2520    3.5354 C   0  0  0  0  0  0  0  0  0  0  0  0
   -4.5918   -7.3206    3.2399 Cl  0  0  0  0  0  0  0  0  0  0  0  0
   -2.5323   -6.3183    4.7554 C   0  0  0  0  0  0  0  0  0  0  0  0
   -1.4396   -5.4697    4.9922 C   0  0  0  0  0  0  0  0  0  0  0  0
   -0.6169   -5.5529    6.5478 Cl  0  0  0  0  0  0  0  0  0  0  0  0
    1.2893   -4.1188    4.0813 C   0  0  0  0  0  0  0  0  0  0  0  0
    1.7842   -5.1803    3.7297 O   0  0  0  0  0  0  0  0  0  0  0  0
    2.1340   -3.0804    4.4138 N   0  0  0  0  0  0  0  0  0  0  0  0
    1.2775   -2.0662    4.8375 C   0  0  0  0  0  0  0  0  0  0  0  0
    1.8566   -1.1055    5.3227 O   0  0  0  0  0  0  0  0  0  0  0  0
   -1.2953   -0.3655    5.3727 C   0  0  0  0  0  0  0  0  0  0  0  0
   -0.4250    0.7439    5.2884 C   0  0  0  0  0  0  0  0  0  0  0  0
   -0.8680    2.0134    5.7226 C   0  0  0  0  0  0  0  0  0  0  0  0
   -2.1839    2.2054    6.1876 C   0  0  0  0  0  0  0  0  0  0  0  0
   -3.0905    1.1342    6.1672 C   0  0  0  0  0  0  0  0  0  0  0  0
   -2.6226   -0.1120    5.7325 C   0  0  0  0  0  0  0  0  0  0  0  0
   -3.7772    0.5733    3.0272 N   0  0  0  0  0  0  0  0  0  0  0  0
   -3.8138    1.3479    1.7740 C   0  0  0  0  0  0  0  0  0  0  0  0
   -2.4593    1.3319    1.0477 C   0  0  0  0  0  0  0  0  0  0  0  0
   -2.6129    2.1141   -0.1473 O   0  0  0  0  0  0  0  0  0  0  0  0
   -1.5076    2.0963   -1.0706 C   0  0  0  0  0  0  0  0  0  0  0  0
   -0.3689    3.0246   -0.5659 C   0  0  0  0  0  0  0  0  0  0  0  0
   -0.7073    4.4030   -0.8219 O   0  0  0  0  0  0  0  0  0  0  0  0
   -0.5695    4.8855   -2.1739 C   0  0  0  0  0  0  0  0  0  0  0  0
    0.9303    5.0668   -2.5124 C   0  0  0  0  0  0  0  0  0  0  0  0
    1.3725    4.0643   -3.4952 N   0  0  0  0  0  0  0  0  0  0  0  0
    2.6572    3.9558   -4.0210 C   0  0  0  0  0  0  0  0  0  0  0  0
    3.6879    4.8879   -3.7437 C   0  0  0  0  0  0  0  0  0  0  0  0
    4.9852    4.7235   -4.2920 C   0  0  0  0  0  0  0  0  0  0  0  0
    5.2786    3.6215   -5.1233 C   0  0  0  0  0  0  0  0  0  0  0  0
    4.2489    2.7153   -5.4032 C   0  0  0  0  0  0  0  0  0  0  0  0
    2.9723    2.8823   -4.8661 C   0  0  0  0  0  0  0  0  0  0  0  0
    2.1950    1.8327   -5.2947 C   0  0  0  0  0  0  0  0  0  0  0  0
    1.1053    1.4770   -4.8580 O   0  0  0  0  0  0  0  0  0  0  0  0
    2.9885    0.9860   -6.0748 N   0  0  0  0  0  0  0  0  0  0  0  0
    2.6117   -0.3867   -6.4682 C   0  0  0  0  0  0  0  0  0  0  0  0
    3.1513   -1.3944   -5.4322 C   0  0  0  0  0  0  0  0  0  0  0  0
    2.7523   -2.8256   -5.8382 C   0  0  0  0  0  0  0  0  0  0  0  0
    3.1535   -3.1433   -7.2608 C   0  0  0  0  0  0  0  0  0  0  0  0
    3.2855   -4.2873   -7.6708 O   0  0  0  0  0  0  0  0  0  0  0  0
    3.1298   -2.1194   -8.2196 N   0  0  0  0  0  0  0  0  0  0  0  0
    3.0367   -0.7573   -7.8865 C   0  0  0  0  0  0  0  0  0  0  0  0
    2.9809    0.0173   -8.8343 O   0  0  0  0  0  0  0  0  0  0  0  0
    4.2657    1.5637   -6.1602 C   0  0  0  0  0  0  0  0  0  0  0  0
    5.2515    0.9178   -6.5005 O   0  0  0  0  0  0  0  0  0  0  0  0
   -5.2933   -0.4154    5.1836 H   0  0  0  0  0  0  0  0  0  0  0  0
   -5.1107   -2.0881    4.6539 H   0  0  0  0  0  0  0  0  0  0  0  0
   -2.8374   -3.1689    4.7759 H   0  0  0  0  0  0  0  0  0  0  0  0
   -1.4102   -3.7825    2.0166 H   0  0  0  0  0  0  0  0  0  0  0  0
   -3.3561   -5.2912    1.6049 H   0  0  0  0  0  0  0  0  0  0  0  0
   -2.8412   -7.0280    5.5153 H   0  0  0  0  0  0  0  0  0  0  0  0
    3.0457   -3.2263    4.8191 H   0  0  0  0  0  0  0  0  0  0  0  0
    0.5584    0.6838    4.8513 H   0  0  0  0  0  0  0  0  0  0  0  0
   -0.1900    2.8620    5.6809 H   0  0  0  0  0  0  0  0  0  0  0  0
   -2.5108    3.1908    6.5180 H   0  0  0  0  0  0  0  0  0  0  0  0
   -4.1284    1.2725    6.4537 H   0  0  0  0  0  0  0  0  0  0  0  0
   -3.1937    0.9058    3.7888 H   0  0  0  0  0  0  0  0  0  0  0  0
   -4.0864    2.3870    2.0041 H   0  0  0  0  0  0  0  0  0  0  0  0
   -4.5848    0.9446    1.1027 H   0  0  0  0  0  0  0  0  0  0  0  0
   -2.1961    0.2935    0.8058 H   0  0  0  0  0  0  0  0  0  0  0  0
   -1.6847    1.7528    1.7022 H   0  0  0  0  0  0  0  0  0  0  0  0
   -1.8471    2.4228   -2.0594 H   0  0  0  0  0  0  0  0  0  0  0  0
   -1.1234    1.0753   -1.1889 H   0  0  0  0  0  0  0  0  0  0  0  0
    0.5692    2.7552   -1.0663 H   0  0  0  0  0  0  0  0  0  0  0  0
   -0.2225    2.8740    0.5100 H   0  0  0  0  0  0  0  0  0  0  0  0
   -1.0601    4.2216   -2.8979 H   0  0  0  0  0  0  0  0  0  0  0  0
   -1.0638    5.8610   -2.2581 H   0  0  0  0  0  0  0  0  0  0  0  0
    1.0802    6.0735   -2.9231 H   0  0  0  0  0  0  0  0  0  0  0  0
    1.5278    4.9840   -1.5941 H   0  0  0  0  0  0  0  0  0  0  0  0
    0.7090    3.3550   -3.7915 H   0  0  0  0  0  0  0  0  0  0  0  0
    3.4966    5.7431   -3.1033 H   0  0  0  0  0  0  0  0  0  0  0  0
    5.7640    5.4489   -4.0685 H   0  0  0  0  0  0  0  0  0  0  0  0
    6.2713    3.4759   -5.5404 H   0  0  0  0  0  0  0  0  0  0  0  0
    1.5141   -0.4381   -6.4629 H   0  0  0  0  0  0  0  0  0  0  0  0
    2.7638   -1.1462   -4.4369 H   0  0  0  0  0  0  0  0  0  0  0  0
    4.2458   -1.3190   -5.3849 H   0  0  0  0  0  0  0  0  0  0  0  0
    3.2134   -3.5555   -5.1609 H   0  0  0  0  0  0  0  0  0  0  0  0
    1.6660   -2.9483   -5.7490 H   0  0  0  0  0  0  0  0  0  0  0  0
    3.2706   -2.3634   -9.1898 H   0  0  0  0  0  0  0  0  0  0  0  0
  1  2  2  0  0  0  0
  2  3  1  0  0  0  0
  2 28  1  0  0  0  0
  3  4  1  0  0  0  0
  3 57  1  0  0  0  0
  3 58  1  0  0  0  0
  4  5  1  0  0  0  0
  4 27  1  0  0  0  0
  5  6  2  0  0  0  0
  5 59  1  0  0  0  0
  6  7  1  0  0  0  0
  6 22  1  0  0  0  0
  7  8  2  0  0  0  0
  7 20  1  0  0  0  0
  8  9  1  0  0  0  0
  8 17  1  0  0  0  0
  9 10  2  0  0  0  0
  9 15  1  0  0  0  0
 10 11  1  0  0  0  0
 10 60  1  0  0  0  0
 11 12  2  0  0  0  0
 11 61  1  0  0  0  0
 12 13  1  0  0  0  0
 12 14  1  0  0  0  0
 14 15  2  0  0  0  0
 14 62  1  0  0  0  0
 15 16  1  0  0  0  0
 17 18  2  0  0  0  0
 17 19  1  0  0  0  0
 19 20  1  0  0  0  0
 19 63  1  0  0  0  0
 20 21  2  0  0  0  0
 22 23  2  0  0  0  0
 22 27  1  0  0  0  0
 23 24  1  0  0  0  0
 23 64  1  0  0  0  0
 24 25  2  0  0  0  0
 24 65  1  0  0  0  0
 25 26  1  0  0  0  0
 25 66  1  0  0  0  0
 26 27  2  0  0  0  0
 26 67  1  0  0  0  0
 28 29  1  0  0  0  0
 28 68  1  0  0  0  0
 29 30  1  0  0  0  0
 29 69  1  0  0  0  0
 29 70  1  0  0  0  0
 30 31  1  0  0  0  0
 30 71  1  0  0  0  0
 30 72  1  0  0  0  0
 31 32  1  0  0  0  0
 32 33  1  0  0  0  0
 32 73  1  0  0  0  0
 32 74  1  0  0  0  0
 33 34  1  0  0  0  0
 33 75  1  0  0  0  0
 33 76  1  0  0  0  0
 34 35  1  0  0  0  0
 35 36  1  0  0  0  0
 35 77  1  0  0  0  0
 35 78  1  0  0  0  0
 36 37  1  0  0  0  0
 36 79  1  0  0  0  0
 36 80  1  0  0  0  0
 37 38  1  0  0  0  0
 37 81  1  0  0  0  0
 38 39  2  0  0  0  0
 38 43  1  0  0  0  0
 39 40  1  0  0  0  0
 39 82  1  0  0  0  0
 40 41  2  0  0  0  0
 40 83  1  0  0  0  0
 41 42  1  0  0  0  0
 41 84  1  0  0  0  0
 42 43  2  0  0  0  0
 42 55  1  0  0  0  0
 43 44  1  0  0  0  0
 44 45  2  0  0  0  0
 44 46  1  0  0  0  0
 46 47  1  0  0  0  0
 46 55  1  0  0  0  0
 47 48  1  0  0  0  0
 47 53  1  0  0  0  0
 47 85  1  0  0  0  0
 48 49  1  0  0  0  0
 48 86  1  0  0  0  0
 48 87  1  0  0  0  0
 49 50  1  0  0  0  0
 49 88  1  0  0  0  0
 49 89  1  0  0  0  0
 50 51  2  0  0  0  0
 50 52  1  0  0  0  0
 52 53  1  0  0  0  0
 52 90  1  0  0  0  0
 53 54  2  0  0  0  0
 55 56  2  0  0  0  0
M  END
$$$$
protac3895RUN2
  chem.cr 07102519423D
protac3895RUN2
 90 96  0  0  0  0  0  0  0  0999 V2000
   -1.2699    1.2435    0.8814 O   0  0  0  0  0  0  0  0  0  0  0  0
   -0.1973    0.9941    1.4096 C   0  0  0  0  0  0  0  0  0  0  0  0
    0.6930    2.0566    2.0135 C   0  0  0  0  0  0  0  0  0  0  0  0
    0.8602    1.9658    3.4773 N   0  0  0  0  0  0  0  0  0  0  0  0
   -0.1279    1.4122    4.3005 C   0  0  0  0  0  0  0  0  0  0  0  0
    0.4182    0.8446    5.4002 C   0  0  0  0  0  0  0  0  0  0  0  0
   -0.2102    0.0640    6.3366 C   0  0  0  0  0  0  0  0  0  0  0  0
   -1.5471   -0.1438    6.4433 C   0  0  0  0  0  0  0  0  0  0  0  0
   -2.5344    0.3944    5.6434 C   0  0  0  0  0  0  0  0  0  0  0  0
   -3.0750   -0.3897    4.6075 C   0  0  0  0  0  0  0  0  0  0  0  0
   -4.0667    0.1352    3.7609 C   0  0  0  0  0  0  0  0  0  0  0  0
   -4.5236    1.4478    3.9498 C   0  0  0  0  0  0  0  0  0  0  0  0
   -5.7664    2.1029    2.8910 Cl  0  0  0  0  0  0  0  0  0  0  0  0
   -3.9941    2.2366    4.9859 C   0  0  0  0  0  0  0  0  0  0  0  0
   -3.0044    1.7110    5.8354 C   0  0  0  0  0  0  0  0  0  0  0  0
   -2.3526    2.7164    7.1271 Cl  0  0  0  0  0  0  0  0  0  0  0  0
   -1.8437   -0.9921    7.4266 C   0  0  0  0  0  0  0  0  0  0  0  0
   -2.8945   -1.4662    7.8388 O   0  0  0  0  0  0  0  0  0  0  0  0
   -0.6656   -1.3760    8.0363 N   0  0  0  0  0  0  0  0  0  0  0  0
    0.3263   -0.7315    7.2991 C   0  0  0  0  0  0  0  0  0  0  0  0
    1.4628   -1.0797    7.5873 O   0  0  0  0  0  0  0  0  0  0  0  0
    1.7893    1.1641    5.3305 C   0  0  0  0  0  0  0  0  0  0  0  0
    2.8176    1.1489    6.2981 C   0  0  0  0  0  0  0  0  0  0  0  0
    4.1061    1.6088    5.9529 C   0  0  0  0  0  0  0  0  0  0  0  0
    4.3673    2.1510    4.6776 C   0  0  0  0  0  0  0  0  0  0  0  0
    3.3213    2.2857    3.7500 C   0  0  0  0  0  0  0  0  0  0  0  0
    2.0577    1.7996    4.1136 C   0  0  0  0  0  0  0  0  0  0  0  0
    0.3805   -0.2353    1.0822 N   0  0  0  0  0  0  0  0  0  0  0  0
    1.1676   -1.0243    2.0444 C   0  0  0  0  0  0  0  0  0  0  0  0
    0.6686   -2.4756    2.0644 C   0  0  0  0  0  0  0  0  0  0  0  0
   -0.6854   -2.4530    2.5519 O   0  0  0  0  0  0  0  0  0  0  0  0
   -1.5891   -3.4228    1.9960 C   0  0  0  0  0  0  0  0  0  0  0  0
   -2.0605   -2.9315    0.6066 C   0  0  0  0  0  0  0  0  0  0  0  0
   -1.1404   -3.4070   -0.3858 O   0  0  0  0  0  0  0  0  0  0  0  0
   -1.2639   -2.7863   -1.6669 C   0  0  0  0  0  0  0  0  0  0  0  0
   -0.2555   -3.4771   -2.6055 C   0  0  0  0  0  0  0  0  0  0  0  0
    0.1518   -2.5774   -3.6948 N   0  0  0  0  0  0  0  0  0  0  0  0
   -0.6767   -2.0851   -4.6956 C   0  0  0  0  0  0  0  0  0  0  0  0
   -1.9625   -2.6089   -4.9726 C   0  0  0  0  0  0  0  0  0  0  0  0
   -2.7746   -2.0464   -5.9892 C   0  0  0  0  0  0  0  0  0  0  0  0
   -2.3132   -0.9541   -6.7533 C   0  0  0  0  0  0  0  0  0  0  0  0
   -1.0353   -0.4553   -6.4789 C   0  0  0  0  0  0  0  0  0  0  0  0
   -0.2397   -1.0071   -5.4753 C   0  0  0  0  0  0  0  0  0  0  0  0
    0.9348   -0.2926   -5.4288 C   0  0  0  0  0  0  0  0  0  0  0  0
    1.8297   -0.3491   -4.5916 O   0  0  0  0  0  0  0  0  0  0  0  0
    0.8728    0.7318   -6.3751 N   0  0  0  0  0  0  0  0  0  0  0  0
    2.0395    1.5020   -6.8495 C   0  0  0  0  0  0  0  0  0  0  0  0
    1.8503    3.0039   -6.5489 C   0  0  0  0  0  0  0  0  0  0  0  0
    3.0098    3.8153   -7.1647 C   0  0  0  0  0  0  0  0  0  0  0  0
    3.1481    3.5393   -8.6448 C   0  0  0  0  0  0  0  0  0  0  0  0
    3.6308    4.3346   -9.4340 O   0  0  0  0  0  0  0  0  0  0  0  0
    2.9311    2.2360   -9.1053 N   0  0  0  0  0  0  0  0  0  0  0  0
    2.3397    1.2323   -8.3228 C   0  0  0  0  0  0  0  0  0  0  0  0
    2.2846    0.1229   -8.8351 O   0  0  0  0  0  0  0  0  0  0  0  0
   -0.3493    0.5936   -7.0507 C   0  0  0  0  0  0  0  0  0  0  0  0
   -0.7900    1.4638   -7.7933 O   0  0  0  0  0  0  0  0  0  0  0  0
    1.6748    1.9999    1.5334 H   0  0  0  0  0  0  0  0  0  0  0  0
    0.2663    3.0381    1.7811 H   0  0  0  0  0  0  0  0  0  0  0  0
   -1.1438    1.3897    3.9187 H   0  0  0  0  0  0  0  0  0  0  0  0
   -2.7144   -1.4040    4.4581 H   0  0  0  0  0  0  0  0  0  0  0  0
   -4.4760   -0.4746    2.9607 H   0  0  0  0  0  0  0  0  0  0  0  0
   -4.3513    3.2519    5.1283 H   0  0  0  0  0  0  0  0  0  0  0  0
   -0.5324   -2.2830    8.4549 H   0  0  0  0  0  0  0  0  0  0  0  0
    2.6462    0.8567    7.3238 H   0  0  0  0  0  0  0  0  0  0  0  0
    4.8986    1.5809    6.6974 H   0  0  0  0  0  0  0  0  0  0  0  0
    5.3580    2.5254    4.4392 H   0  0  0  0  0  0  0  0  0  0  0  0
    3.4858    2.7875    2.8021 H   0  0  0  0  0  0  0  0  0  0  0  0
   -0.1124   -0.7619    0.3696 H   0  0  0  0  0  0  0  0  0  0  0  0
    1.0721   -0.6139    3.0568 H   0  0  0  0  0  0  0  0  0  0  0  0
    2.2271   -0.9908    1.7634 H   0  0  0  0  0  0  0  0  0  0  0  0
    1.2971   -3.0845    2.7252 H   0  0  0  0  0  0  0  0  0  0  0  0
    0.7401   -2.8883    1.0509 H   0  0  0  0  0  0  0  0  0  0  0  0
   -2.4669   -3.5164    2.6481 H   0  0  0  0  0  0  0  0  0  0  0  0
   -1.1172   -4.4113    1.9193 H   0  0  0  0  0  0  0  0  0  0  0  0
   -2.1160   -1.8329    0.6087 H   0  0  0  0  0  0  0  0  0  0  0  0
   -3.0636   -3.3241    0.4011 H   0  0  0  0  0  0  0  0  0  0  0  0
   -2.2821   -2.8919   -2.0634 H   0  0  0  0  0  0  0  0  0  0  0  0
   -1.0342   -1.7150   -1.5914 H   0  0  0  0  0  0  0  0  0  0  0  0
    0.6349   -3.7589   -2.0248 H   0  0  0  0  0  0  0  0  0  0  0  0
   -0.6903   -4.3991   -3.0120 H   0  0  0  0  0  0  0  0  0  0  0  0
    1.0498   -2.1096   -3.6106 H   0  0  0  0  0  0  0  0  0  0  0  0
   -2.3437   -3.4515   -4.4085 H   0  0  0  0  0  0  0  0  0  0  0  0
   -3.7627   -2.4583   -6.1807 H   0  0  0  0  0  0  0  0  0  0  0  0
   -2.9273   -0.5092   -7.5326 H   0  0  0  0  0  0  0  0  0  0  0  0
    2.9165    1.1571   -6.2862 H   0  0  0  0  0  0  0  0  0  0  0  0
    1.7930    3.1635   -5.4638 H   0  0  0  0  0  0  0  0  0  0  0  0
    0.8979    3.3478   -6.9767 H   0  0  0  0  0  0  0  0  0  0  0  0
    2.8405    4.8888   -7.0102 H   0  0  0  0  0  0  0  0  0  0  0  0
    3.9566    3.5684   -6.6691 H   0  0  0  0  0  0  0  0  0  0  0  0
    3.1293    2.0292  -10.0729 H   0  0  0  0  0  0  0  0  0  0  0  0
  1  2  2  0  0  0  0
  2  3  1  0  0  0  0
  2 28  1  0  0  0  0
  3  4  1  0  0  0  0
  3 57  1  0  0  0  0
  3 58  1  0  0  0  0
  4  5  1  0  0  0  0
  4 27  1  0  0  0  0
  5  6  2  0  0  0  0
  5 59  1  0  0  0  0
  6  7  1  0  0  0  0
  6 22  1  0  0  0  0
  7  8  2  0  0  0  0
  7 20  1  0  0  0  0
  8  9  1  0  0  0  0
  8 17  1  0  0  0  0
  9 10  2  0  0  0  0
  9 15  1  0  0  0  0
 10 11  1  0  0  0  0
 10 60  1  0  0  0  0
 11 12  2  0  0  0  0
 11 61  1  0  0  0  0
 12 13  1  0  0  0  0
 12 14  1  0  0  0  0
 14 15  2  0  0  0  0
 14 62  1  0  0  0  0
 15 16  1  0  0  0  0
 17 18  2  0  0  0  0
 17 19  1  0  0  0  0
 19 20  1  0  0  0  0
 19 63  1  0  0  0  0
 20 21  2  0  0  0  0
 22 23  2  0  0  0  0
 22 27  1  0  0  0  0
 23 24  1  0  0  0  0
 23 64  1  0  0  0  0
 24 25  2  0  0  0  0
 24 65  1  0  0  0  0
 25 26  1  0  0  0  0
 25 66  1  0  0  0  0
 26 27  2  0  0  0  0
 26 67  1  0  0  0  0
 28 29  1  0  0  0  0
 28 68  1  0  0  0  0
 29 30  1  0  0  0  0
 29 69  1  0  0  0  0
 29 70  1  0  0  0  0
 30 31  1  0  0  0  0
 30 71  1  0  0  0  0
 30 72  1  0  0  0  0
 31 32  1  0  0  0  0
 32 33  1  0  0  0  0
 32 73  1  0  0  0  0
 32 74  1  0  0  0  0
 33 34  1  0  0  0  0
 33 75  1  0  0  0  0
 33 76  1  0  0  0  0
 34 35  1  0  0  0  0
 35 36  1  0  0  0  0
 35 77  1  0  0  0  0
 35 78  1  0  0  0  0
 36 37  1  0  0  0  0
 36 79  1  0  0  0  0
 36 80  1  0  0  0  0
 37 38  1  0  0  0  0
 37 81  1  0  0  0  0
 38 39  2  0  0  0  0
 38 43  1  0  0  0  0
 39 40  1  0  0  0  0
 39 82  1  0  0  0  0
 40 41  2  0  0  0  0
 40 83  1  0  0  0  0
 41 42  1  0  0  0  0
 41 84  1  0  0  0  0
 42 43  2  0  0  0  0
 42 55  1  0  0  0  0
 43 44  1  0  0  0  0
 44 45  2  0  0  0  0
 44 46  1  0  0  0  0
 46 47  1  0  0  0  0
 46 55  1  0  0  0  0
 47 48  1  0  0  0  0
 47 53  1  0  0  0  0
 47 85  1  0  0  0  0
 48 49  1  0  0  0  0
 48 86  1  0  0  0  0
 48 87  1  0  0  0  0
 49 50  1  0  0  0  0
 49 88  1  0  0  0  0
 49 89  1  0  0  0  0
 50 51  2  0  0  0  0
 50 52  1  0  0  0  0
 52 53  1  0  0  0  0
 52 90  1  0  0  0  0
 53 54  2  0  0  0  0
 55 56  2  0  0  0  0
M  END
$$$$
protac3895RUN2
  chem.cr 07102519423D
protac3895RUN2
 90 96  0  0  0  0  0  0  0  0999 V2000
   -3.8656    2.4531    2.1009 O   0  0  0  0  0  0  0  0  0  0  0  0
   -2.9034    1.9011    2.6180 C   0  0  0  0  0  0  0  0  0  0  0  0
   -2.3332    2.3056    3.9583 C   0  0  0  0  0  0  0  0  0  0  0  0
   -1.1643    3.2050    3.8799 N   0  0  0  0  0  0  0  0  0  0  0  0
   -0.9364    4.0362    2.7794 C   0  0  0  0  0  0  0  0  0  0  0  0
    0.3861    4.2737    2.6180 C   0  0  0  0  0  0  0  0  0  0  0  0
    1.0021    4.8930    1.5599 C   0  0  0  0  0  0  0  0  0  0  0  0
    0.3875    5.5681    0.5572 C   0  0  0  0  0  0  0  0  0  0  0  0
   -0.9671    5.8012    0.4352 C   0  0  0  0  0  0  0  0  0  0  0  0
   -1.5436    6.8904    1.1152 C   0  0  0  0  0  0  0  0  0  0  0  0
   -2.9281    7.1201    1.0428 C   0  0  0  0  0  0  0  0  0  0  0  0
   -3.7412    6.2615    0.2864 C   0  0  0  0  0  0  0  0  0  0  0  0
   -5.4750    6.5415    0.2066 Cl  0  0  0  0  0  0  0  0  0  0  0  0
   -3.1740    5.1757   -0.4006 C   0  0  0  0  0  0  0  0  0  0  0  0
   -1.7888    4.9463   -0.3323 C   0  0  0  0  0  0  0  0  0  0  0  0
   -1.1091    3.5488   -1.1647 Cl  0  0  0  0  0  0  0  0  0  0  0  0
    1.2539    6.0161   -0.3505 C   0  0  0  0  0  0  0  0  0  0  0  0
    1.1303    6.6413   -1.3951 O   0  0  0  0  0  0  0  0  0  0  0  0
    2.5239    5.6561    0.0571 N   0  0  0  0  0  0  0  0  0  0  0  0
    2.3187    4.9182    1.2219 C   0  0  0  0  0  0  0  0  0  0  0  0
    3.3227    4.3655    1.6493 O   0  0  0  0  0  0  0  0  0  0  0  0
    0.9997    3.6848    3.7415 C   0  0  0  0  0  0  0  0  0  0  0  0
    2.2721    3.8710    4.3248 C   0  0  0  0  0  0  0  0  0  0  0  0
    2.5839    3.2197    5.5378 C   0  0  0  0  0  0  0  0  0  0  0  0
    1.6183    2.4466    6.2146 C   0  0  0  0  0  0  0  0  0  0  0  0
    0.3122    2.3529    5.7027 C   0  0  0  0  0  0  0  0  0  0  0  0
    0.0410    2.9848    4.4821 C   0  0  0  0  0  0  0  0  0  0  0  0
   -2.2570    0.8596    1.9331 N   0  0  0  0  0  0  0  0  0  0  0  0
   -2.7796    0.2919    0.6765 C   0  0  0  0  0  0  0  0  0  0  0  0
   -4.0883   -0.5130    0.8846 C   0  0  0  0  0  0  0  0  0  0  0  0
   -3.8668   -1.8915    0.5459 O   0  0  0  0  0  0  0  0  0  0  0  0
   -3.0449   -2.6459    1.4513 C   0  0  0  0  0  0  0  0  0  0  0  0
   -2.7530   -4.0240    0.8205 C   0  0  0  0  0  0  0  0  0  0  0  0
   -1.8498   -3.8305   -0.2807 O   0  0  0  0  0  0  0  0  0  0  0  0
   -2.4424   -3.6909   -1.5839 C   0  0  0  0  0  0  0  0  0  0  0  0
   -2.6144   -5.1001   -2.1856 C   0  0  0  0  0  0  0  0  0  0  0  0
   -1.2832   -5.6972   -2.3692 N   0  0  0  0  0  0  0  0  0  0  0  0
   -0.5468   -5.4621   -3.5215 C   0  0  0  0  0  0  0  0  0  0  0  0
   -1.0924   -5.6335   -4.8151 C   0  0  0  0  0  0  0  0  0  0  0  0
   -0.3324   -5.3348   -5.9729 C   0  0  0  0  0  0  0  0  0  0  0  0
    0.9878   -4.8530   -5.8578 C   0  0  0  0  0  0  0  0  0  0  0  0
    1.5206   -4.6997   -4.5721 C   0  0  0  0  0  0  0  0  0  0  0  0
    0.7739   -5.0042   -3.4324 C   0  0  0  0  0  0  0  0  0  0  0  0
    1.5449   -4.7034   -2.3331 C   0  0  0  0  0  0  0  0  0  0  0  0
    1.2348   -4.7186   -1.1478 O   0  0  0  0  0  0  0  0  0  0  0  0
    2.7569   -4.1745   -2.7789 N   0  0  0  0  0  0  0  0  0  0  0  0
    3.8252   -3.6194   -1.9262 C   0  0  0  0  0  0  0  0  0  0  0  0
    3.7229   -2.0733   -1.9035 C   0  0  0  0  0  0  0  0  0  0  0  0
    5.0408   -1.4407   -1.4086 C   0  0  0  0  0  0  0  0  0  0  0  0
    6.1991   -1.9085   -2.2560 C   0  0  0  0  0  0  0  0  0  0  0  0
    7.1677   -1.2165   -2.5307 O   0  0  0  0  0  0  0  0  0  0  0  0
    6.2549   -3.2634   -2.5919 N   0  0  0  0  0  0  0  0  0  0  0  0
    5.1981   -4.1506   -2.3407 C   0  0  0  0  0  0  0  0  0  0  0  0
    5.4735   -5.3424   -2.3840 O   0  0  0  0  0  0  0  0  0  0  0  0
    2.7473   -4.2148   -4.1796 C   0  0  0  0  0  0  0  0  0  0  0  0
    3.5419   -3.5723   -4.8570 O   0  0  0  0  0  0  0  0  0  0  0  0
   -3.1181    2.8176    4.5269 H   0  0  0  0  0  0  0  0  0  0  0  0
   -2.0566    1.4042    4.5144 H   0  0  0  0  0  0  0  0  0  0  0  0
   -1.7854    4.2820    2.1511 H   0  0  0  0  0  0  0  0  0  0  0  0
   -0.9149    7.5501    1.7080 H   0  0  0  0  0  0  0  0  0  0  0  0
   -3.3705    7.9601    1.5720 H   0  0  0  0  0  0  0  0  0  0  0  0
   -3.8080    4.5082   -0.9766 H   0  0  0  0  0  0  0  0  0  0  0  0
    3.2935    5.4982   -0.5740 H   0  0  0  0  0  0  0  0  0  0  0  0
    3.0036    4.5510    3.9129 H   0  0  0  0  0  0  0  0  0  0  0  0
    3.5699    3.3503    5.9762 H   0  0  0  0  0  0  0  0  0  0  0  0
    1.8673    1.9765    7.1627 H   0  0  0  0  0  0  0  0  0  0  0  0
   -0.4661    1.8434    6.2608 H   0  0  0  0  0  0  0  0  0  0  0  0
   -1.3459    0.5651    2.2651 H   0  0  0  0  0  0  0  0  0  0  0  0
   -2.0153   -0.3455    0.2108 H   0  0  0  0  0  0  0  0  0  0  0  0
   -2.9794    1.1169   -0.0209 H   0  0  0  0  0  0  0  0  0  0  0  0
   -4.8624   -0.0935    0.2289 H   0  0  0  0  0  0  0  0  0  0  0  0
   -4.4497   -0.4143    1.9164 H   0  0  0  0  0  0  0  0  0  0  0  0
   -3.5629   -2.7841    2.4086 H   0  0  0  0  0  0  0  0  0  0  0  0
   -2.0898   -2.1420    1.6454 H   0  0  0  0  0  0  0  0  0  0  0  0
   -3.6861   -4.5099    0.5080 H   0  0  0  0  0  0  0  0  0  0  0  0
   -2.2758   -4.6597    1.5763 H   0  0  0  0  0  0  0  0  0  0  0  0
   -3.4107   -3.1769   -1.5369 H   0  0  0  0  0  0  0  0  0  0  0  0
   -1.7822   -3.1023   -2.2342 H   0  0  0  0  0  0  0  0  0  0  0  0
   -3.2181   -5.7236   -1.5141 H   0  0  0  0  0  0  0  0  0  0  0  0
   -3.1450   -5.0225   -3.1423 H   0  0  0  0  0  0  0  0  0  0  0  0
   -0.7109   -5.6940   -1.5295 H   0  0  0  0  0  0  0  0  0  0  0  0
   -2.1062   -6.0038   -4.9282 H   0  0  0  0  0  0  0  0  0  0  0  0
   -0.7710   -5.4693   -6.9585 H   0  0  0  0  0  0  0  0  0  0  0  0
    1.5786   -4.6013   -6.7350 H   0  0  0  0  0  0  0  0  0  0  0  0
    3.6606   -3.9834   -0.9029 H   0  0  0  0  0  0  0  0  0  0  0  0
    2.8759   -1.7647   -1.2750 H   0  0  0  0  0  0  0  0  0  0  0  0
    3.5165   -1.7061   -2.9189 H   0  0  0  0  0  0  0  0  0  0  0  0
    4.9757   -0.3461   -1.4549 H   0  0  0  0  0  0  0  0  0  0  0  0
    5.2288   -1.7073   -0.3604 H   0  0  0  0  0  0  0  0  0  0  0  0
    7.0969   -3.6254   -3.0124 H   0  0  0  0  0  0  0  0  0  0  0  0
  1  2  2  0  0  0  0
  2  3  1  0  0  0  0
  2 28  1  0  0  0  0
  3  4  1  0  0  0  0
  3 57  1  0  0  0  0
  3 58  1  0  0  0  0
  4  5  1  0  0  0  0
  4 27  1  0  0  0  0
  5  6  2  0  0  0  0
  5 59  1  0  0  0  0
  6  7  1  0  0  0  0
  6 22  1  0  0  0  0
  7  8  2  0  0  0  0
  7 20  1  0  0  0  0
  8  9  1  0  0  0  0
  8 17  1  0  0  0  0
  9 10  2  0  0  0  0
  9 15  1  0  0  0  0
 10 11  1  0  0  0  0
 10 60  1  0  0  0  0
 11 12  2  0  0  0  0
 11 61  1  0  0  0  0
 12 13  1  0  0  0  0
 12 14  1  0  0  0  0
 14 15  2  0  0  0  0
 14 62  1  0  0  0  0
 15 16  1  0  0  0  0
 17 18  2  0  0  0  0
 17 19  1  0  0  0  0
 19 20  1  0  0  0  0
 19 63  1  0  0  0  0
 20 21  2  0  0  0  0
 22 23  2  0  0  0  0
 22 27  1  0  0  0  0
 23 24  1  0  0  0  0
 23 64  1  0  0  0  0
 24 25  2  0  0  0  0
 24 65  1  0  0  0  0
 25 26  1  0  0  0  0
 25 66  1  0  0  0  0
 26 27  2  0  0  0  0
 26 67  1  0  0  0  0
 28 29  1  0  0  0  0
 28 68  1  0  0  0  0
 29 30  1  0  0  0  0
 29 69  1  0  0  0  0
 29 70  1  0  0  0  0
 30 31  1  0  0  0  0
 30 71  1  0  0  0  0
 30 72  1  0  0  0  0
 31 32  1  0  0  0  0
 32 33  1  0  0  0  0
 32 73  1  0  0  0  0
 32 74  1  0  0  0  0
 33 34  1  0  0  0  0
 33 75  1  0  0  0  0
 33 76  1  0  0  0  0
 34 35  1  0  0  0  0
 35 36  1  0  0  0  0
 35 77  1  0  0  0  0
 35 78  1  0  0  0  0
 36 37  1  0  0  0  0
 36 79  1  0  0  0  0
 36 80  1  0  0  0  0
 37 38  1  0  0  0  0
 37 81  1  0  0  0  0
 38 39  2  0  0  0  0
 38 43  1  0  0  0  0
 39 40  1  0  0  0  0
 39 82  1  0  0  0  0
 40 41  2  0  0  0  0
 40 83  1  0  0  0  0
 41 42  1  0  0  0  0
 41 84  1  0  0  0  0
 42 43  2  0  0  0  0
 42 55  1  0  0  0  0
 43 44  1  0  0  0  0
 44 45  2  0  0  0  0
 44 46  1  0  0  0  0
 46 47  1  0  0  0  0
 46 55  1  0  0  0  0
 47 48  1  0  0  0  0
 47 53  1  0  0  0  0
 47 85  1  0  0  0  0
 48 49  1  0  0  0  0
 48 86  1  0  0  0  0
 48 87  1  0  0  0  0
 49 50  1  0  0  0  0
 49 88  1  0  0  0  0
 49 89  1  0  0  0  0
 50 51  2  0  0  0  0
 50 52  1  0  0  0  0
 52 53  1  0  0  0  0
 52 90  1  0  0  0  0
 53 54  2  0  0  0  0
 55 56  2  0  0  0  0
M  END
$$$$
protac3895RUN2
  chem.cr 07102519423D
protac3895RUN2
 90 96  0  0  0  0  0  0  0  0999 V2000
   -2.1736    5.0398   -2.0056 O   0  0  0  0  0  0  0  0  0  0  0  0
   -2.0569    3.8437   -1.7921 C   0  0  0  0  0  0  0  0  0  0  0  0
   -2.8137    2.7948   -2.5754 C   0  0  0  0  0  0  0  0  0  0  0  0
   -4.1858    2.5599   -2.0727 N   0  0  0  0  0  0  0  0  0  0  0  0
   -5.1772    3.5309   -2.2915 C   0  0  0  0  0  0  0  0  0  0  0  0
   -5.9534    3.6934   -1.1944 C   0  0  0  0  0  0  0  0  0  0  0  0
   -6.8836    4.6689   -0.9665 C   0  0  0  0  0  0  0  0  0  0  0  0
   -7.4261    5.4980   -1.8893 C   0  0  0  0  0  0  0  0  0  0  0  0
   -7.2423    5.4589   -3.2573 C   0  0  0  0  0  0  0  0  0  0  0  0
   -8.0366    4.5875   -4.0293 C   0  0  0  0  0  0  0  0  0  0  0  0
   -7.9401    4.5918   -5.4320 C   0  0  0  0  0  0  0  0  0  0  0  0
   -7.0520    5.4721   -6.0692 C   0  0  0  0  0  0  0  0  0  0  0  0
   -6.9517    5.5012   -7.8245 Cl  0  0  0  0  0  0  0  0  0  0  0  0
   -6.2524    6.3410   -5.3080 C   0  0  0  0  0  0  0  0  0  0  0  0
   -6.3501    6.3398   -3.9047 C   0  0  0  0  0  0  0  0  0  0  0  0
   -5.3384    7.4449   -2.9734 Cl  0  0  0  0  0  0  0  0  0  0  0  0
   -8.2670    6.3738   -1.3365 C   0  0  0  0  0  0  0  0  0  0  0  0
   -8.9646    7.2721   -1.7870 O   0  0  0  0  0  0  0  0  0  0  0  0
   -8.3169    6.1239    0.0221 N   0  0  0  0  0  0  0  0  0  0  0  0
   -7.4147    5.0798    0.2154 C   0  0  0  0  0  0  0  0  0  0  0  0
   -7.1957    4.8107    1.3883 O   0  0  0  0  0  0  0  0  0  0  0  0
   -5.5325    2.6981   -0.2965 C   0  0  0  0  0  0  0  0  0  0  0  0
   -6.1314    2.1591    0.8640 C   0  0  0  0  0  0  0  0  0  0  0  0
   -5.5065    1.0814    1.5292 C   0  0  0  0  0  0  0  0  0  0  0  0
   -4.3345    0.4944    1.0106 C   0  0  0  0  0  0  0  0  0  0  0  0
   -3.8019    0.9508   -0.2078 C   0  0  0  0  0  0  0  0  0  0  0  0
   -4.4289    2.0341   -0.8334 C   0  0  0  0  0  0  0  0  0  0  0  0
   -1.5877    3.4732   -0.5283 N   0  0  0  0  0  0  0  0  0  0  0  0
   -0.2302    2.9483   -0.3321 C   0  0  0  0  0  0  0  0  0  0  0  0
    0.3152    3.3181    1.0567 C   0  0  0  0  0  0  0  0  0  0  0  0
    1.5972    2.6961    1.1938 O   0  0  0  0  0  0  0  0  0  0  0  0
    2.2666    2.9679    2.4340 C   0  0  0  0  0  0  0  0  0  0  0  0
    3.5286    2.0868    2.5003 C   0  0  0  0  0  0  0  0  0  0  0  0
    3.1020    0.7367    2.7207 O   0  0  0  0  0  0  0  0  0  0  0  0
    4.1513   -0.2313    2.8243 C   0  0  0  0  0  0  0  0  0  0  0  0
    3.4635   -1.5978    2.9492 C   0  0  0  0  0  0  0  0  0  0  0  0
    4.4514   -2.6881    2.9278 N   0  0  0  0  0  0  0  0  0  0  0  0
    4.1247   -4.0279    3.1034 C   0  0  0  0  0  0  0  0  0  0  0  0
    3.0055   -4.4483    3.8615 C   0  0  0  0  0  0  0  0  0  0  0  0
    2.6891   -5.8232    3.9957 C   0  0  0  0  0  0  0  0  0  0  0  0
    3.4775   -6.8065    3.3631 C   0  0  0  0  0  0  0  0  0  0  0  0
    4.5869   -6.3795    2.6236 C   0  0  0  0  0  0  0  0  0  0  0  0
    4.9081   -5.0263    2.5061 C   0  0  0  0  0  0  0  0  0  0  0  0
    6.0238   -4.9268    1.7065 C   0  0  0  0  0  0  0  0  0  0  0  0
    6.4878   -3.9267    1.1689 O   0  0  0  0  0  0  0  0  0  0  0  0
    6.3806   -6.2121    1.2952 N   0  0  0  0  0  0  0  0  0  0  0  0
    7.4725   -6.5453    0.3596 C   0  0  0  0  0  0  0  0  0  0  0  0
    6.9016   -6.6428   -1.0737 C   0  0  0  0  0  0  0  0  0  0  0  0
    7.9397   -7.2651   -2.0287 C   0  0  0  0  0  0  0  0  0  0  0  0
    8.3831   -8.6154   -1.5191 C   0  0  0  0  0  0  0  0  0  0  0  0
    8.7097   -9.5392   -2.2467 O   0  0  0  0  0  0  0  0  0  0  0  0
    8.5966   -8.7692   -0.1460 N   0  0  0  0  0  0  0  0  0  0  0  0
    8.2399   -7.7937    0.7969 C   0  0  0  0  0  0  0  0  0  0  0  0
    8.7143   -7.9333    1.9158 O   0  0  0  0  0  0  0  0  0  0  0  0
    5.4918   -7.1162    1.8926 C   0  0  0  0  0  0  0  0  0  0  0  0
    5.3296   -8.2489    1.4495 O   0  0  0  0  0  0  0  0  0  0  0  0
   -2.8705    3.1260   -3.6190 H   0  0  0  0  0  0  0  0  0  0  0  0
   -2.2571    1.8510   -2.5550 H   0  0  0  0  0  0  0  0  0  0  0  0
   -5.1206    4.1230   -3.1994 H   0  0  0  0  0  0  0  0  0  0  0  0
   -8.7437    3.9262   -3.5360 H   0  0  0  0  0  0  0  0  0  0  0  0
   -8.5703    3.9321   -6.0238 H   0  0  0  0  0  0  0  0  0  0  0  0
   -5.5756    7.0302   -5.8057 H   0  0  0  0  0  0  0  0  0  0  0  0
   -8.4817    6.8413    0.7134 H   0  0  0  0  0  0  0  0  0  0  0  0
   -7.0849    2.5048    1.2390 H   0  0  0  0  0  0  0  0  0  0  0  0
   -5.9510    0.6848    2.4384 H   0  0  0  0  0  0  0  0  0  0  0  0
   -3.8728   -0.3428    1.5253 H   0  0  0  0  0  0  0  0  0  0  0  0
   -2.9480    0.4623   -0.6648 H   0  0  0  0  0  0  0  0  0  0  0  0
   -2.0676    3.8805    0.2673 H   0  0  0  0  0  0  0  0  0  0  0  0
    0.4357    3.3646   -1.1008 H   0  0  0  0  0  0  0  0  0  0  0  0
   -0.2386    1.8555   -0.4407 H   0  0  0  0  0  0  0  0  0  0  0  0
   -0.3701    2.9536    1.8342 H   0  0  0  0  0  0  0  0  0  0  0  0
    0.3997    4.4098    1.1411 H   0  0  0  0  0  0  0  0  0  0  0  0
    1.6198    2.7437    3.2925 H   0  0  0  0  0  0  0  0  0  0  0  0
    2.5546    4.0259    2.4824 H   0  0  0  0  0  0  0  0  0  0  0  0
    4.1659    2.4242    3.3279 H   0  0  0  0  0  0  0  0  0  0  0  0
    4.0905    2.1748    1.5607 H   0  0  0  0  0  0  0  0  0  0  0  0
    4.7874   -0.2121    1.9299 H   0  0  0  0  0  0  0  0  0  0  0  0
    4.7767   -0.0404    3.7069 H   0  0  0  0  0  0  0  0  0  0  0  0
    2.8801   -1.6123    3.8777 H   0  0  0  0  0  0  0  0  0  0  0  0
    2.7665   -1.7191    2.1092 H   0  0  0  0  0  0  0  0  0  0  0  0
    5.3186   -2.5256    2.4252 H   0  0  0  0  0  0  0  0  0  0  0  0
    2.3775   -3.7190    4.3590 H   0  0  0  0  0  0  0  0  0  0  0  0
    1.8278   -6.1220    4.5864 H   0  0  0  0  0  0  0  0  0  0  0  0
    3.2379   -7.8642    3.4439 H   0  0  0  0  0  0  0  0  0  0  0  0
    8.2000   -5.7221    0.3877 H   0  0  0  0  0  0  0  0  0  0  0  0
    6.5903   -5.6486   -1.4211 H   0  0  0  0  0  0  0  0  0  0  0  0
    6.0017   -7.2727   -1.0618 H   0  0  0  0  0  0  0  0  0  0  0  0
    7.5091   -7.3785   -3.0322 H   0  0  0  0  0  0  0  0  0  0  0  0
    8.8149   -6.6111   -2.1275 H   0  0  0  0  0  0  0  0  0  0  0  0
    9.0046   -9.6303    0.1866 H   0  0  0  0  0  0  0  0  0  0  0  0
  1  2  2  0  0  0  0
  2  3  1  0  0  0  0
  2 28  1  0  0  0  0
  3  4  1  0  0  0  0
  3 57  1  0  0  0  0
  3 58  1  0  0  0  0
  4  5  1  0  0  0  0
  4 27  1  0  0  0  0
  5  6  2  0  0  0  0
  5 59  1  0  0  0  0
  6  7  1  0  0  0  0
  6 22  1  0  0  0  0
  7  8  2  0  0  0  0
  7 20  1  0  0  0  0
  8  9  1  0  0  0  0
  8 17  1  0  0  0  0
  9 10  2  0  0  0  0
  9 15  1  0  0  0  0
 10 11  1  0  0  0  0
 10 60  1  0  0  0  0
 11 12  2  0  0  0  0
 11 61  1  0  0  0  0
 12 13  1  0  0  0  0
 12 14  1  0  0  0  0
 14 15  2  0  0  0  0
 14 62  1  0  0  0  0
 15 16  1  0  0  0  0
 17 18  2  0  0  0  0
 17 19  1  0  0  0  0
 19 20  1  0  0  0  0
 19 63  1  0  0  0  0
 20 21  2  0  0  0  0
 22 23  2  0  0  0  0
 22 27  1  0  0  0  0
 23 24  1  0  0  0  0
 23 64  1  0  0  0  0
 24 25  2  0  0  0  0
 24 65  1  0  0  0  0
 25 26  1  0  0  0  0
 25 66  1  0  0  0  0
 26 27  2  0  0  0  0
 26 67  1  0  0  0  0
 28 29  1  0  0  0  0
 28 68  1  0  0  0  0
 29 30  1  0  0  0  0
 29 69  1  0  0  0  0
 29 70  1  0  0  0  0
 30 31  1  0  0  0  0
 30 71  1  0  0  0  0
 30 72  1  0  0  0  0
 31 32  1  0  0  0  0
 32 33  1  0  0  0  0
 32 73  1  0  0  0  0
 32 74  1  0  0  0  0
 33 34  1  0  0  0  0
 33 75  1  0  0  0  0
 33 76  1  0  0  0  0
 34 35  1  0  0  0  0
 35 36  1  0  0  0  0
 35 77  1  0  0  0  0
 35 78  1  0  0  0  0
 36 37  1  0  0  0  0
 36 79  1  0  0  0  0
 36 80  1  0  0  0  0
 37 38  1  0  0  0  0
 37 81  1  0  0  0  0
 38 39  2  0  0  0  0
 38 43  1  0  0  0  0
 39 40  1  0  0  0  0
 39 82  1  0  0  0  0
 40 41  2  0  0  0  0
 40 83  1  0  0  0  0
 41 42  1  0  0  0  0
 41 84  1  0  0  0  0
 42 43  2  0  0  0  0
 42 55  1  0  0  0  0
 43 44  1  0  0  0  0
 44 45  2  0  0  0  0
 44 46  1  0  0  0  0
 46 47  1  0  0  0  0
 46 55  1  0  0  0  0
 47 48  1  0  0  0  0
 47 53  1  0  0  0  0
 47 85  1  0  0  0  0
 48 49  1  0  0  0  0
 48 86  1  0  0  0  0
 48 87  1  0  0  0  0
 49 50  1  0  0  0  0
 49 88  1  0  0  0  0
 49 89  1  0  0  0  0
 50 51  2  0  0  0  0
 50 52  1  0  0  0  0
 52 53  1  0  0  0  0
 52 90  1  0  0  0  0
 53 54  2  0  0  0  0
 55 56  2  0  0  0  0
M  END
$$$$
protac3895RUN2
  chem.cr 07102519423D
protac3895RUN2
 90 96  0  0  0  0  0  0  0  0999 V2000
   -2.1166    4.8914   -1.7252 O   0  0  0  0  0  0  0  0  0  0  0  0
   -1.3772    3.9353   -1.9093 C   0  0  0  0  0  0  0  0  0  0  0  0
   -0.3361    3.8946   -3.0036 C   0  0  0  0  0  0  0  0  0  0  0  0
   -0.8015    3.3128   -4.2799 N   0  0  0  0  0  0  0  0  0  0  0  0
   -0.2420    3.8022   -5.4720 C   0  0  0  0  0  0  0  0  0  0  0  0
    0.0283    2.8041   -6.3418 C   0  0  0  0  0  0  0  0  0  0  0  0
    0.7205    2.8853   -7.5231 C   0  0  0  0  0  0  0  0  0  0  0  0
    1.0925    4.0231   -8.1669 C   0  0  0  0  0  0  0  0  0  0  0  0
    0.8147    5.3263   -7.7951 C   0  0  0  0  0  0  0  0  0  0  0  0
    1.8619    6.1454   -7.3272 C   0  0  0  0  0  0  0  0  0  0  0  0
    1.6197    7.4855   -6.9773 C   0  0  0  0  0  0  0  0  0  0  0  0
    0.3266    8.0174   -7.0981 C   0  0  0  0  0  0  0  0  0  0  0  0
    0.0298    9.6996   -6.6805 Cl  0  0  0  0  0  0  0  0  0  0  0  0
   -0.7238    7.2144   -7.5718 C   0  0  0  0  0  0  0  0  0  0  0  0
   -0.4823    5.8742   -7.9251 C   0  0  0  0  0  0  0  0  0  0  0  0
   -1.8179    4.9049   -8.5448 Cl  0  0  0  0  0  0  0  0  0  0  0  0
    1.7981    3.7625   -9.2655 C   0  0  0  0  0  0  0  0  0  0  0  0
    2.3412    4.4719  -10.1050 O   0  0  0  0  0  0  0  0  0  0  0  0
    1.8980    2.3933   -9.4012 N   0  0  0  0  0  0  0  0  0  0  0  0
    1.2566    1.8868   -8.2729 C   0  0  0  0  0  0  0  0  0  0  0  0
    1.3946    0.6806   -8.1204 O   0  0  0  0  0  0  0  0  0  0  0  0
   -0.5033    1.6483   -5.7417 C   0  0  0  0  0  0  0  0  0  0  0  0
   -0.8316    0.3821   -6.2743 C   0  0  0  0  0  0  0  0  0  0  0  0
   -1.4690   -0.5744   -5.4562 C   0  0  0  0  0  0  0  0  0  0  0  0
   -1.8686   -0.2503   -4.1454 C   0  0  0  0  0  0  0  0  0  0  0  0
   -1.6632    1.0493   -3.6528 C   0  0  0  0  0  0  0  0  0  0  0  0
   -0.9790    1.9657   -4.4657 C   0  0  0  0  0  0  0  0  0  0  0  0
   -1.2470    2.9833   -0.8864 N   0  0  0  0  0  0  0  0  0  0  0  0
   -2.2438    2.8285    0.1849 C   0  0  0  0  0  0  0  0  0  0  0  0
   -2.2955    1.3817    0.6980 C   0  0  0  0  0  0  0  0  0  0  0  0
   -3.3047    1.3241    1.7159 O   0  0  0  0  0  0  0  0  0  0  0  0
   -3.5794    0.0257    2.2783 C   0  0  0  0  0  0  0  0  0  0  0  0
   -2.4209   -0.4162    3.2006 C   0  0  0  0  0  0  0  0  0  0  0  0
   -1.3778   -0.9937    2.4009 O   0  0  0  0  0  0  0  0  0  0  0  0
   -0.2536   -1.4575    3.1528 C   0  0  0  0  0  0  0  0  0  0  0  0
    0.7782   -2.0198    2.1604 C   0  0  0  0  0  0  0  0  0  0  0  0
    1.9286   -2.5323    2.9170 N   0  0  0  0  0  0  0  0  0  0  0  0
    2.0324   -3.8858    3.1947 C   0  0  0  0  0  0  0  0  0  0  0  0
    2.1050   -4.8591    2.1743 C   0  0  0  0  0  0  0  0  0  0  0  0
    2.1646   -6.2398    2.4905 C   0  0  0  0  0  0  0  0  0  0  0  0
    2.1332   -6.6688    3.8346 C   0  0  0  0  0  0  0  0  0  0  0  0
    2.0554   -5.6897    4.8351 C   0  0  0  0  0  0  0  0  0  0  0  0
    2.0237   -4.3333    4.5187 C   0  0  0  0  0  0  0  0  0  0  0  0
    1.8932   -3.6334    5.6929 C   0  0  0  0  0  0  0  0  0  0  0  0
    1.8013   -2.4186    5.8508 O   0  0  0  0  0  0  0  0  0  0  0  0
    1.8022   -4.5335    6.7618 N   0  0  0  0  0  0  0  0  0  0  0  0
    1.0185   -4.2349    7.9786 C   0  0  0  0  0  0  0  0  0  0  0  0
    1.7719   -4.6700    9.2537 C   0  0  0  0  0  0  0  0  0  0  0  0
    0.9090   -4.3534   10.4945 C   0  0  0  0  0  0  0  0  0  0  0  0
   -0.4791   -4.9447   10.3850 C   0  0  0  0  0  0  0  0  0  0  0  0
   -1.1838   -5.1833   11.3536 O   0  0  0  0  0  0  0  0  0  0  0  0
   -1.0823   -5.0322    9.1239 N   0  0  0  0  0  0  0  0  0  0  0  0
   -0.3902   -4.8181    7.9235 C   0  0  0  0  0  0  0  0  0  0  0  0
   -1.0692   -4.8627    6.9053 O   0  0  0  0  0  0  0  0  0  0  0  0
    1.9347   -5.8163    6.1996 C   0  0  0  0  0  0  0  0  0  0  0  0
    1.8700   -6.8451    6.8643 O   0  0  0  0  0  0  0  0  0  0  0  0
   -0.0129    4.9261   -3.1838 H   0  0  0  0  0  0  0  0  0  0  0  0
    0.5407    3.3292   -2.6686 H   0  0  0  0  0  0  0  0  0  0  0  0
    0.0123    4.8565   -5.5162 H   0  0  0  0  0  0  0  0  0  0  0  0
    2.8687    5.7417   -7.2503 H   0  0  0  0  0  0  0  0  0  0  0  0
    2.4351    8.1161   -6.6289 H   0  0  0  0  0  0  0  0  0  0  0  0
   -1.7195    7.6326   -7.6804 H   0  0  0  0  0  0  0  0  0  0  0  0
    2.6580    1.9258   -9.8674 H   0  0  0  0  0  0  0  0  0  0  0  0
   -0.6729    0.1311   -7.3123 H   0  0  0  0  0  0  0  0  0  0  0  0
   -1.7001   -1.5559   -5.8600 H   0  0  0  0  0  0  0  0  0  0  0  0
   -2.3967   -0.9837   -3.5410 H   0  0  0  0  0  0  0  0  0  0  0  0
   -2.0762    1.3355   -2.6942 H   0  0  0  0  0  0  0  0  0  0  0  0
   -0.5293    2.2752   -0.9824 H   0  0  0  0  0  0  0  0  0  0  0  0
   -3.2366    3.1146   -0.1923 H   0  0  0  0  0  0  0  0  0  0  0  0
   -1.9942    3.5066    1.0118 H   0  0  0  0  0  0  0  0  0  0  0  0
   -1.3125    1.1068    1.1010 H   0  0  0  0  0  0  0  0  0  0  0  0
   -2.5430    0.7008   -0.1265 H   0  0  0  0  0  0  0  0  0  0  0  0
   -3.7472   -0.7230    1.4924 H   0  0  0  0  0  0  0  0  0  0  0  0
   -4.4947    0.0826    2.8803 H   0  0  0  0  0  0  0  0  0  0  0  0
   -2.8000   -1.1588    3.9151 H   0  0  0  0  0  0  0  0  0  0  0  0
   -2.0551    0.4484    3.7704 H   0  0  0  0  0  0  0  0  0  0  0  0
    0.1938   -0.6362    3.7302 H   0  0  0  0  0  0  0  0  0  0  0  0
   -0.5558   -2.2477    3.8557 H   0  0  0  0  0  0  0  0  0  0  0  0
    0.3109   -2.8204    1.5719 H   0  0  0  0  0  0  0  0  0  0  0  0
    1.0989   -1.2269    1.4732 H   0  0  0  0  0  0  0  0  0  0  0  0
    2.2009   -1.9540    3.7062 H   0  0  0  0  0  0  0  0  0  0  0  0
    2.1161   -4.5464    1.1341 H   0  0  0  0  0  0  0  0  0  0  0  0
    2.2178   -6.9771    1.6915 H   0  0  0  0  0  0  0  0  0  0  0  0
    2.1491   -7.7251    4.0934 H   0  0  0  0  0  0  0  0  0  0  0  0
    0.8928   -3.1454    8.0306 H   0  0  0  0  0  0  0  0  0  0  0  0
    2.7443   -4.1615    9.3116 H   0  0  0  0  0  0  0  0  0  0  0  0
    1.9717   -5.7495    9.2146 H   0  0  0  0  0  0  0  0  0  0  0  0
    1.3940   -4.7409   11.3991 H   0  0  0  0  0  0  0  0  0  0  0  0
    0.8203   -3.2686   10.6290 H   0  0  0  0  0  0  0  0  0  0  0  0
   -2.0416   -5.3419    9.0729 H   0  0  0  0  0  0  0  0  0  0  0  0
  1  2  2  0  0  0  0
  2  3  1  0  0  0  0
  2 28  1  0  0  0  0
  3  4  1  0  0  0  0
  3 57  1  0  0  0  0
  3 58  1  0  0  0  0
  4  5  1  0  0  0  0
  4 27  1  0  0  0  0
  5  6  2  0  0  0  0
  5 59  1  0  0  0  0
  6  7  1  0  0  0  0
  6 22  1  0  0  0  0
  7  8  2  0  0  0  0
  7 20  1  0  0  0  0
  8  9  1  0  0  0  0
  8 17  1  0  0  0  0
  9 10  2  0  0  0  0
  9 15  1  0  0  0  0
 10 11  1  0  0  0  0
 10 60  1  0  0  0  0
 11 12  2  0  0  0  0
 11 61  1  0  0  0  0
 12 13  1  0  0  0  0
 12 14  1  0  0  0  0
 14 15  2  0  0  0  0
 14 62  1  0  0  0  0
 15 16  1  0  0  0  0
 17 18  2  0  0  0  0
 17 19  1  0  0  0  0
 19 20  1  0  0  0  0
 19 63  1  0  0  0  0
 20 21  2  0  0  0  0
 22 23  2  0  0  0  0
 22 27  1  0  0  0  0
 23 24  1  0  0  0  0
 23 64  1  0  0  0  0
 24 25  2  0  0  0  0
 24 65  1  0  0  0  0
 25 26  1  0  0  0  0
 25 66  1  0  0  0  0
 26 27  2  0  0  0  0
 26 67  1  0  0  0  0
 28 29  1  0  0  0  0
 28 68  1  0  0  0  0
 29 30  1  0  0  0  0
 29 69  1  0  0  0  0
 29 70  1  0  0  0  0
 30 31  1  0  0  0  0
 30 71  1  0  0  0  0
 30 72  1  0  0  0  0
 31 32  1  0  0  0  0
 32 33  1  0  0  0  0
 32 73  1  0  0  0  0
 32 74  1  0  0  0  0
 33 34  1  0  0  0  0
 33 75  1  0  0  0  0
 33 76  1  0  0  0  0
 34 35  1  0  0  0  0
 35 36  1  0  0  0  0
 35 77  1  0  0  0  0
 35 78  1  0  0  0  0
 36 37  1  0  0  0  0
 36 79  1  0  0  0  0
 36 80  1  0  0  0  0
 37 38  1  0  0  0  0
 37 81  1  0  0  0  0
 38 39  2  0  0  0  0
 38 43  1  0  0  0  0
 39 40  1  0  0  0  0
 39 82  1  0  0  0  0
 40 41  2  0  0  0  0
 40 83  1  0  0  0  0
 41 42  1  0  0  0  0
 41 84  1  0  0  0  0
 42 43  2  0  0  0  0
 42 55  1  0  0  0  0
 43 44  1  0  0  0  0
 44 45  2  0  0  0  0
 44 46  1  0  0  0  0
 46 47  1  0  0  0  0
 46 55  1  0  0  0  0
 47 48  1  0  0  0  0
 47 53  1  0  0  0  0
 47 85  1  0  0  0  0
 48 49  1  0  0  0  0
 48 86  1  0  0  0  0
 48 87  1  0  0  0  0
 49 50  1  0  0  0  0
 49 88  1  0  0  0  0
 49 89  1  0  0  0  0
 50 51  2  0  0  0  0
 50 52  1  0  0  0  0
 52 53  1  0  0  0  0
 52 90  1  0  0  0  0
 53 54  2  0  0  0  0
 55 56  2  0  0  0  0
M  END
$$$$
protac3895RUN2
  chem.cr 07102519423D
protac3895RUN2
 90 96  0  0  0  0  0  0  0  0999 V2000
   -3.8306    4.7436   -0.1680 O   0  0  0  0  0  0  0  0  0  0  0  0
   -2.7565    4.3637   -0.6153 C   0  0  0  0  0  0  0  0  0  0  0  0
   -2.1663    4.8771   -1.9051 C   0  0  0  0  0  0  0  0  0  0  0  0
   -2.0274    3.9103   -3.0255 N   0  0  0  0  0  0  0  0  0  0  0  0
   -1.0958    4.2076   -4.0314 C   0  0  0  0  0  0  0  0  0  0  0  0
   -0.4617    3.0979   -4.4699 C   0  0  0  0  0  0  0  0  0  0  0  0
    0.6246    3.0416   -5.3139 C   0  0  0  0  0  0  0  0  0  0  0  0
    1.1509    4.0756   -6.0232 C   0  0  0  0  0  0  0  0  0  0  0  0
    0.6827    5.3748   -6.0833 C   0  0  0  0  0  0  0  0  0  0  0  0
    1.3302    6.3811   -5.3383 C   0  0  0  0  0  0  0  0  0  0  0  0
    0.8594    7.7039   -5.3680 C   0  0  0  0  0  0  0  0  0  0  0  0
   -0.2547    8.0348   -6.1566 C   0  0  0  0  0  0  0  0  0  0  0  0
   -0.8539    9.6878   -6.1807 Cl  0  0  0  0  0  0  0  0  0  0  0  0
   -0.8841    7.0465   -6.9302 C   0  0  0  0  0  0  0  0  0  0  0  0
   -0.4160    5.7215   -6.8987 C   0  0  0  0  0  0  0  0  0  0  0  0
   -1.2137    4.5021   -7.8930 Cl  0  0  0  0  0  0  0  0  0  0  0  0
    2.2133    3.7044   -6.7346 C   0  0  0  0  0  0  0  0  0  0  0  0
    2.9524    4.2923   -7.5174 O   0  0  0  0  0  0  0  0  0  0  0  0
    2.4627    2.3741   -6.4732 N   0  0  0  0  0  0  0  0  0  0  0  0
    1.4438    1.9934   -5.6007 C   0  0  0  0  0  0  0  0  0  0  0  0
    1.5417    0.8431   -5.2034 O   0  0  0  0  0  0  0  0  0  0  0  0
   -1.1197    2.0316   -3.8231 C   0  0  0  0  0  0  0  0  0  0  0  0
   -1.1607    0.6435   -4.0949 C   0  0  0  0  0  0  0  0  0  0  0  0
   -2.0253   -0.1916   -3.3558 C   0  0  0  0  0  0  0  0  0  0  0  0
   -2.9231    0.3475   -2.4155 C   0  0  0  0  0  0  0  0  0  0  0  0
   -2.9830    1.7352   -2.2280 C   0  0  0  0  0  0  0  0  0  0  0  0
   -2.0624    2.5418   -2.9184 C   0  0  0  0  0  0  0  0  0  0  0  0
   -1.9809    3.4681    0.1368 N   0  0  0  0  0  0  0  0  0  0  0  0
   -2.5424    2.7283    1.2717 C   0  0  0  0  0  0  0  0  0  0  0  0
   -1.6092    1.6016    1.7435 C   0  0  0  0  0  0  0  0  0  0  0  0
   -2.2928    0.9051    2.7958 O   0  0  0  0  0  0  0  0  0  0  0  0
   -3.0218   -0.2761    2.4158 C   0  0  0  0  0  0  0  0  0  0  0  0
   -2.0937   -1.4920    2.6056 C   0  0  0  0  0  0  0  0  0  0  0  0
   -1.1978   -1.5809    1.4884 O   0  0  0  0  0  0  0  0  0  0  0  0
   -0.2038   -2.6004    1.6322 C   0  0  0  0  0  0  0  0  0  0  0  0
    0.6500   -2.6197    0.3465 C   0  0  0  0  0  0  0  0  0  0  0  0
    1.6889   -3.6718    0.3403 N   0  0  0  0  0  0  0  0  0  0  0  0
    1.5453   -4.8815    1.0081 C   0  0  0  0  0  0  0  0  0  0  0  0
    1.0486   -6.0166    0.3303 C   0  0  0  0  0  0  0  0  0  0  0  0
    0.8595   -7.2455    1.0055 C   0  0  0  0  0  0  0  0  0  0  0  0
    1.1656   -7.3606    2.3805 C   0  0  0  0  0  0  0  0  0  0  0  0
    1.6638   -6.2280    3.0379 C   0  0  0  0  0  0  0  0  0  0  0  0
    1.8676   -5.0233    2.3678 C   0  0  0  0  0  0  0  0  0  0  0  0
    2.3695   -4.1195    3.2792 C   0  0  0  0  0  0  0  0  0  0  0  0
    2.9262   -3.0477    3.0608 O   0  0  0  0  0  0  0  0  0  0  0  0
    2.4648   -4.7354    4.5338 N   0  0  0  0  0  0  0  0  0  0  0  0
    2.3418   -3.9720    5.7949 C   0  0  0  0  0  0  0  0  0  0  0  0
    3.4057   -4.3921    6.8329 C   0  0  0  0  0  0  0  0  0  0  0  0
    3.2162   -3.5712    8.1300 C   0  0  0  0  0  0  0  0  0  0  0  0
    1.7981   -3.6545    8.6529 C   0  0  0  0  0  0  0  0  0  0  0  0
    1.4985   -3.4260    9.8144 O   0  0  0  0  0  0  0  0  0  0  0  0
    0.7440   -3.7735    7.7403 N   0  0  0  0  0  0  0  0  0  0  0  0
    0.9301   -4.0323    6.3736 C   0  0  0  0  0  0  0  0  0  0  0  0
   -0.0872   -4.0500    5.6932 O   0  0  0  0  0  0  0  0  0  0  0  0
    2.0123   -6.0523    4.3591 C   0  0  0  0  0  0  0  0  0  0  0  0
    2.0405   -6.8890    5.2531 O   0  0  0  0  0  0  0  0  0  0  0  0
   -2.8029    5.6956   -2.2615 H   0  0  0  0  0  0  0  0  0  0  0  0
   -1.1792    5.2999   -1.6827 H   0  0  0  0  0  0  0  0  0  0  0  0
   -0.9052    5.2526   -4.2483 H   0  0  0  0  0  0  0  0  0  0  0  0
    2.2000    6.1291   -4.7368 H   0  0  0  0  0  0  0  0  0  0  0  0
    1.3610    8.4772   -4.7909 H   0  0  0  0  0  0  0  0  0  0  0  0
   -1.7315    7.3089   -7.5584 H   0  0  0  0  0  0  0  0  0  0  0  0
    2.9107    1.7449   -7.1197 H   0  0  0  0  0  0  0  0  0  0  0  0
   -0.6079    0.1926   -4.9021 H   0  0  0  0  0  0  0  0  0  0  0  0
   -2.0434   -1.2584   -3.5603 H   0  0  0  0  0  0  0  0  0  0  0  0
   -3.6162   -0.3054   -1.8904 H   0  0  0  0  0  0  0  0  0  0  0  0
   -3.7529    2.1652   -1.5962 H   0  0  0  0  0  0  0  0  0  0  0  0
   -1.1266    3.1250   -0.2846 H   0  0  0  0  0  0  0  0  0  0  0  0
   -3.5095    2.3019    0.9748 H   0  0  0  0  0  0  0  0  0  0  0  0
   -2.7240    3.4272    2.1009 H   0  0  0  0  0  0  0  0  0  0  0  0
   -0.6748    2.0333    2.1230 H   0  0  0  0  0  0  0  0  0  0  0  0
   -1.3636    0.9282    0.9106 H   0  0  0  0  0  0  0  0  0  0  0  0
   -3.3762   -0.2294    1.3768 H   0  0  0  0  0  0  0  0  0  0  0  0
   -3.8941   -0.3951    3.0698 H   0  0  0  0  0  0  0  0  0  0  0  0
   -2.6981   -2.4057    2.6748 H   0  0  0  0  0  0  0  0  0  0  0  0
   -1.5390   -1.3783    3.5471 H   0  0  0  0  0  0  0  0  0  0  0  0
    0.4319   -2.3793    2.5000 H   0  0  0  0  0  0  0  0  0  0  0  0
   -0.6819   -3.5775    1.7874 H   0  0  0  0  0  0  0  0  0  0  0  0
   -0.0159   -2.7568   -0.5142 H   0  0  0  0  0  0  0  0  0  0  0  0
    1.1308   -1.6391    0.2401 H   0  0  0  0  0  0  0  0  0  0  0  0
    2.3001   -3.6980   -0.4636 H   0  0  0  0  0  0  0  0  0  0  0  0
    0.7882   -5.9419   -0.7209 H   0  0  0  0  0  0  0  0  0  0  0  0
    0.4640   -8.1044    0.4674 H   0  0  0  0  0  0  0  0  0  0  0  0
    1.0145   -8.2928    2.9163 H   0  0  0  0  0  0  0  0  0  0  0  0
    2.5256   -2.9167    5.5524 H   0  0  0  0  0  0  0  0  0  0  0  0
    4.4149   -4.2448    6.4247 H   0  0  0  0  0  0  0  0  0  0  0  0
    3.3057   -5.4628    7.0576 H   0  0  0  0  0  0  0  0  0  0  0  0
    3.9061   -3.9228    8.9075 H   0  0  0  0  0  0  0  0  0  0  0  0
    3.4617   -2.5172    7.9495 H   0  0  0  0  0  0  0  0  0  0  0  0
   -0.2012   -3.7346    8.0935 H   0  0  0  0  0  0  0  0  0  0  0  0
  1  2  2  0  0  0  0
  2  3  1  0  0  0  0
  2 28  1  0  0  0  0
  3  4  1  0  0  0  0
  3 57  1  0  0  0  0
  3 58  1  0  0  0  0
  4  5  1  0  0  0  0
  4 27  1  0  0  0  0
  5  6  2  0  0  0  0
  5 59  1  0  0  0  0
  6  7  1  0  0  0  0
  6 22  1  0  0  0  0
  7  8  2  0  0  0  0
  7 20  1  0  0  0  0
  8  9  1  0  0  0  0
  8 17  1  0  0  0  0
  9 10  2  0  0  0  0
  9 15  1  0  0  0  0
 10 11  1  0  0  0  0
 10 60  1  0  0  0  0
 11 12  2  0  0  0  0
 11 61  1  0  0  0  0
 12 13  1  0  0  0  0
 12 14  1  0  0  0  0
 14 15  2  0  0  0  0
 14 62  1  0  0  0  0
 15 16  1  0  0  0  0
 17 18  2  0  0  0  0
 17 19  1  0  0  0  0
 19 20  1  0  0  0  0
 19 63  1  0  0  0  0
 20 21  2  0  0  0  0
 22 23  2  0  0  0  0
 22 27  1  0  0  0  0
 23 24  1  0  0  0  0
 23 64  1  0  0  0  0
 24 25  2  0  0  0  0
 24 65  1  0  0  0  0
 25 26  1  0  0  0  0
 25 66  1  0  0  0  0
 26 27  2  0  0  0  0
 26 67  1  0  0  0  0
 28 29  1  0  0  0  0
 28 68  1  0  0  0  0
 29 30  1  0  0  0  0
 29 69  1  0  0  0  0
 29 70  1  0  0  0  0
 30 31  1  0  0  0  0
 30 71  1  0  0  0  0
 30 72  1  0  0  0  0
 31 32  1  0  0  0  0
 32 33  1  0  0  0  0
 32 73  1  0  0  0  0
 32 74  1  0  0  0  0
 33 34  1  0  0  0  0
 33 75  1  0  0  0  0
 33 76  1  0  0  0  0
 34 35  1  0  0  0  0
 35 36  1  0  0  0  0
 35 77  1  0  0  0  0
 35 78  1  0  0  0  0
 36 37  1  0  0  0  0
 36 79  1  0  0  0  0
 36 80  1  0  0  0  0
 37 38  1  0  0  0  0
 37 81  1  0  0  0  0
 38 39  2  0  0  0  0
 38 43  1  0  0  0  0
 39 40  1  0  0  0  0
 39 82  1  0  0  0  0
 40 41  2  0  0  0  0
 40 83  1  0  0  0  0
 41 42  1  0  0  0  0
 41 84  1  0  0  0  0
 42 43  2  0  0  0  0
 42 55  1  0  0  0  0
 43 44  1  0  0  0  0
 44 45  2  0  0  0  0
 44 46  1  0  0  0  0
 46 47  1  0  0  0  0
 46 55  1  0  0  0  0
 47 48  1  0  0  0  0
 47 53  1  0  0  0  0
 47 85  1  0  0  0  0
 48 49  1  0  0  0  0
 48 86  1  0  0  0  0
 48 87  1  0  0  0  0
 49 50  1  0  0  0  0
 49 88  1  0  0  0  0
 49 89  1  0  0  0  0
 50 51  2  0  0  0  0
 50 52  1  0  0  0  0
 52 53  1  0  0  0  0
 52 90  1  0  0  0  0
 53 54  2  0  0  0  0
 55 56  2  0  0  0  0
M  END
$$$$
protac3895RUN2
  chem.cr 07102519423D
protac3895RUN2
 90 96  0  0  0  0  0  0  0  0999 V2000
   -1.9370    2.8326   -0.7958 O   0  0  0  0  0  0  0  0  0  0  0  0
   -1.2977    2.1497   -1.5818 C   0  0  0  0  0  0  0  0  0  0  0  0
   -0.4870    2.7502   -2.7142 C   0  0  0  0  0  0  0  0  0  0  0  0
   -1.2886    3.5498   -3.6589 N   0  0  0  0  0  0  0  0  0  0  0  0
   -1.9312    4.7292   -3.2623 C   0  0  0  0  0  0  0  0  0  0  0  0
   -3.0260    4.9604   -4.0225 C   0  0  0  0  0  0  0  0  0  0  0  0
   -3.9892    5.9174   -3.8213 C   0  0  0  0  0  0  0  0  0  0  0  0
   -3.8949    6.9841   -2.9894 C   0  0  0  0  0  0  0  0  0  0  0  0
   -2.7865    7.3695   -2.2658 C   0  0  0  0  0  0  0  0  0  0  0  0
   -1.7372    8.0403   -2.9229 C   0  0  0  0  0  0  0  0  0  0  0  0
   -0.5982    8.4450   -2.2062 C   0  0  0  0  0  0  0  0  0  0  0  0
   -0.5079    8.1822   -0.8296 C   0  0  0  0  0  0  0  0  0  0  0  0
    0.9195    8.6874    0.0636 Cl  0  0  0  0  0  0  0  0  0  0  0  0
   -1.5550    7.5164   -0.1677 C   0  0  0  0  0  0  0  0  0  0  0  0
   -2.6962    7.1138   -0.8825 C   0  0  0  0  0  0  0  0  0  0  0  0
   -3.9849    6.2495   -0.0459 Cl  0  0  0  0  0  0  0  0  0  0  0  0
   -5.0019    7.7274   -2.9873 C   0  0  0  0  0  0  0  0  0  0  0  0
   -5.3186    8.7715   -2.4361 O   0  0  0  0  0  0  0  0  0  0  0  0
   -5.9106    7.1183   -3.8283 N   0  0  0  0  0  0  0  0  0  0  0  0
   -5.2385    6.0134   -4.3441 C   0  0  0  0  0  0  0  0  0  0  0  0
   -5.9192    5.3110   -5.0792 O   0  0  0  0  0  0  0  0  0  0  0  0
   -3.0134    3.9434   -4.9984 C   0  0  0  0  0  0  0  0  0  0  0  0
   -3.6899    3.8112   -6.2306 C   0  0  0  0  0  0  0  0  0  0  0  0
   -3.4070    2.7100   -7.0676 C   0  0  0  0  0  0  0  0  0  0  0  0
   -2.4115    1.7737   -6.7230 C   0  0  0  0  0  0  0  0  0  0  0  0
   -1.6533    1.9587   -5.5537 C   0  0  0  0  0  0  0  0  0  0  0  0
   -1.9709    3.0502   -4.7321 C   0  0  0  0  0  0  0  0  0  0  0  0
   -0.8792    0.9192   -1.0633 N   0  0  0  0  0  0  0  0  0  0  0  0
   -0.4911   -0.2373   -1.8851 C   0  0  0  0  0  0  0  0  0  0  0  0
   -0.3747   -1.5061   -1.0151 C   0  0  0  0  0  0  0  0  0  0  0  0
   -0.0413   -2.6046   -1.8798 O   0  0  0  0  0  0  0  0  0  0  0  0
    0.3845   -3.8228   -1.2289 C   0  0  0  0  0  0  0  0  0  0  0  0
   -0.7670   -4.4038   -0.3823 C   0  0  0  0  0  0  0  0  0  0  0  0
   -0.4006   -5.7442   -0.0207 O   0  0  0  0  0  0  0  0  0  0  0  0
   -1.3188   -6.4532    0.8342 C   0  0  0  0  0  0  0  0  0  0  0  0
   -1.2119   -5.9261    2.2881 C   0  0  0  0  0  0  0  0  0  0  0  0
    0.1946   -5.9320    2.7264 N   0  0  0  0  0  0  0  0  0  0  0  0
    0.6560   -5.9323    4.0416 C   0  0  0  0  0  0  0  0  0  0  0  0
   -0.1340   -6.3291    5.1507 C   0  0  0  0  0  0  0  0  0  0  0  0
    0.3868   -6.2964    6.4696 C   0  0  0  0  0  0  0  0  0  0  0  0
    1.7099   -5.8748    6.7092 C   0  0  0  0  0  0  0  0  0  0  0  0
    2.4797   -5.4877    5.6075 C   0  0  0  0  0  0  0  0  0  0  0  0
    1.9710   -5.5233    4.3086 C   0  0  0  0  0  0  0  0  0  0  0  0
    2.9423   -5.0295    3.4686 C   0  0  0  0  0  0  0  0  0  0  0  0
    2.8660   -4.8106    2.2637 O   0  0  0  0  0  0  0  0  0  0  0  0
    4.0608   -4.6467    4.2225 N   0  0  0  0  0  0  0  0  0  0  0  0
    4.8991   -3.4830    3.8608 C   0  0  0  0  0  0  0  0  0  0  0  0
    6.4048   -3.8321    3.9343 C   0  0  0  0  0  0  0  0  0  0  0  0
    7.2488   -2.5581    3.7110 C   0  0  0  0  0  0  0  0  0  0  0  0
    6.8732   -1.4762    4.6965 C   0  0  0  0  0  0  0  0  0  0  0  0
    7.6394   -0.5996    5.0583 O   0  0  0  0  0  0  0  0  0  0  0  0
    5.5306   -1.3354    5.0607 N   0  0  0  0  0  0  0  0  0  0  0  0
    4.5342   -2.2507    4.6898 C   0  0  0  0  0  0  0  0  0  0  0  0
    3.3823   -1.9048    4.9185 O   0  0  0  0  0  0  0  0  0  0  0  0
    3.7524   -4.9728    5.5524 C   0  0  0  0  0  0  0  0  0  0  0  0
    4.5520   -4.8374    6.4738 O   0  0  0  0  0  0  0  0  0  0  0  0
    0.2702    3.4095   -2.2748 H   0  0  0  0  0  0  0  0  0  0  0  0
    0.0388    1.9748   -3.2780 H   0  0  0  0  0  0  0  0  0  0  0  0
   -1.5880    5.2147   -2.3540 H   0  0  0  0  0  0  0  0  0  0  0  0
   -1.8089    8.2446   -3.9891 H   0  0  0  0  0  0  0  0  0  0  0  0
    0.2080    8.9673   -2.7145 H   0  0  0  0  0  0  0  0  0  0  0  0
   -1.4867    7.3106    0.8963 H   0  0  0  0  0  0  0  0  0  0  0  0
   -6.7284    7.5532   -4.2222 H   0  0  0  0  0  0  0  0  0  0  0  0
   -4.3797    4.5578   -6.5933 H   0  0  0  0  0  0  0  0  0  0  0  0
   -3.9415    2.6034   -8.0076 H   0  0  0  0  0  0  0  0  0  0  0  0
   -2.1928    0.9438   -7.3895 H   0  0  0  0  0  0  0  0  0  0  0  0
   -0.8230    1.2990   -5.3238 H   0  0  0  0  0  0  0  0  0  0  0  0
   -1.1462    0.7504   -0.1018 H   0  0  0  0  0  0  0  0  0  0  0  0
    0.4797   -0.0469   -2.3627 H   0  0  0  0  0  0  0  0  0  0  0  0
   -1.2392   -0.3935   -2.6742 H   0  0  0  0  0  0  0  0  0  0  0  0
   -1.3267   -1.6919   -0.4976 H   0  0  0  0  0  0  0  0  0  0  0  0
    0.4136   -1.3542   -0.2666 H   0  0  0  0  0  0  0  0  0  0  0  0
    1.2568   -3.6407   -0.5869 H   0  0  0  0  0  0  0  0  0  0  0  0
    0.6806   -4.5620   -1.9855 H   0  0  0  0  0  0  0  0  0  0  0  0
   -1.6909   -4.4011   -0.9759 H   0  0  0  0  0  0  0  0  0  0  0  0
   -0.9126   -3.7851    0.5095 H   0  0  0  0  0  0  0  0  0  0  0  0
   -2.3494   -6.3592    0.4662 H   0  0  0  0  0  0  0  0  0  0  0  0
   -1.0641   -7.5216    0.8357 H   0  0  0  0  0  0  0  0  0  0  0  0
   -1.6140   -4.9067    2.3539 H   0  0  0  0  0  0  0  0  0  0  0  0
   -1.8249   -6.5675    2.9305 H   0  0  0  0  0  0  0  0  0  0  0  0
    0.8898   -5.7088    2.0205 H   0  0  0  0  0  0  0  0  0  0  0  0
   -1.1563   -6.6611    5.0082 H   0  0  0  0  0  0  0  0  0  0  0  0
   -0.2425   -6.5912    7.3046 H   0  0  0  0  0  0  0  0  0  0  0  0
    2.1153   -5.8229    7.7186 H   0  0  0  0  0  0  0  0  0  0  0  0
    4.6743   -3.2215    2.8190 H   0  0  0  0  0  0  0  0  0  0  0  0
    6.6479   -4.5993    3.1865 H   0  0  0  0  0  0  0  0  0  0  0  0
    6.6370   -4.2585    4.9206 H   0  0  0  0  0  0  0  0  0  0  0  0
    8.3161   -2.7874    3.8153 H   0  0  0  0  0  0  0  0  0  0  0  0
    7.1046   -2.1782    2.6913 H   0  0  0  0  0  0  0  0  0  0  0  0
    5.2633   -0.5448    5.6290 H   0  0  0  0  0  0  0  0  0  0  0  0
  1  2  2  0  0  0  0
  2  3  1  0  0  0  0
  2 28  1  0  0  0  0
  3  4  1  0  0  0  0
  3 57  1  0  0  0  0
  3 58  1  0  0  0  0
  4  5  1  0  0  0  0
  4 27  1  0  0  0  0
  5  6  2  0  0  0  0
  5 59  1  0  0  0  0
  6  7  1  0  0  0  0
  6 22  1  0  0  0  0
  7  8  2  0  0  0  0
  7 20  1  0  0  0  0
  8  9  1  0  0  0  0
  8 17  1  0  0  0  0
  9 10  2  0  0  0  0
  9 15  1  0  0  0  0
 10 11  1  0  0  0  0
 10 60  1  0  0  0  0
 11 12  2  0  0  0  0
 11 61  1  0  0  0  0
 12 13  1  0  0  0  0
 12 14  1  0  0  0  0
 14 15  2  0  0  0  0
 14 62  1  0  0  0  0
 15 16  1  0  0  0  0
 17 18  2  0  0  0  0
 17 19  1  0  0  0  0
 19 20  1  0  0  0  0
 19 63  1  0  0  0  0
 20 21  2  0  0  0  0
 22 23  2  0  0  0  0
 22 27  1  0  0  0  0
 23 24  1  0  0  0  0
 23 64  1  0  0  0  0
 24 25  2  0  0  0  0
 24 65  1  0  0  0  0
 25 26  1  0  0  0  0
 25 66  1  0  0  0  0
 26 27  2  0  0  0  0
 26 67  1  0  0  0  0
 28 29  1  0  0  0  0
 28 68  1  0  0  0  0
 29 30  1  0  0  0  0
 29 69  1  0  0  0  0
 29 70  1  0  0  0  0
 30 31  1  0  0  0  0
 30 71  1  0  0  0  0
 30 72  1  0  0  0  0
 31 32  1  0  0  0  0
 32 33  1  0  0  0  0
 32 73  1  0  0  0  0
 32 74  1  0  0  0  0
 33 34  1  0  0  0  0
 33 75  1  0  0  0  0
 33 76  1  0  0  0  0
 34 35  1  0  0  0  0
 35 36  1  0  0  0  0
 35 77  1  0  0  0  0
 35 78  1  0  0  0  0
 36 37  1  0  0  0  0
 36 79  1  0  0  0  0
 36 80  1  0  0  0  0
 37 38  1  0  0  0  0
 37 81  1  0  0  0  0
 38 39  2  0  0  0  0
 38 43  1  0  0  0  0
 39 40  1  0  0  0  0
 39 82  1  0  0  0  0
 40 41  2  0  0  0  0
 40 83  1  0  0  0  0
 41 42  1  0  0  0  0
 41 84  1  0  0  0  0
 42 43  2  0  0  0  0
 42 55  1  0  0  0  0
 43 44  1  0  0  0  0
 44 45  2  0  0  0  0
 44 46  1  0  0  0  0
 46 47  1  0  0  0  0
 46 55  1  0  0  0  0
 47 48  1  0  0  0  0
 47 53  1  0  0  0  0
 47 85  1  0  0  0  0
 48 49  1  0  0  0  0
 48 86  1  0  0  0  0
 48 87  1  0  0  0  0
 49 50  1  0  0  0  0
 49 88  1  0  0  0  0
 49 89  1  0  0  0  0
 50 51  2  0  0  0  0
 50 52  1  0  0  0  0
 52 53  1  0  0  0  0
 52 90  1  0  0  0  0
 53 54  2  0  0  0  0
 55 56  2  0  0  0  0
M  END
$$$$
protac3895RUN2
  chem.cr 07102519423D
protac3895RUN2
 90 96  0  0  0  0  0  0  0  0999 V2000
    1.4814   -4.0530    2.4787 O   0  0  0  0  0  0  0  0  0  0  0  0
    2.0516   -3.2403    1.7669 C   0  0  0  0  0  0  0  0  0  0  0  0
    3.1296   -3.6340    0.7742 C   0  0  0  0  0  0  0  0  0  0  0  0
    2.6431   -3.9037   -0.5922 N   0  0  0  0  0  0  0  0  0  0  0  0
    1.3281   -4.2562   -0.9128 C   0  0  0  0  0  0  0  0  0  0  0  0
    1.2279   -4.5574   -2.2282 C   0  0  0  0  0  0  0  0  0  0  0  0
    0.0800   -4.7752   -2.9446 C   0  0  0  0  0  0  0  0  0  0  0  0
   -1.1539   -5.0003   -2.4291 C   0  0  0  0  0  0  0  0  0  0  0  0
   -1.4676   -5.1622   -1.0925 C   0  0  0  0  0  0  0  0  0  0  0  0
   -2.1760   -4.1541   -0.4108 C   0  0  0  0  0  0  0  0  0  0  0  0
   -2.4660   -4.2909    0.9582 C   0  0  0  0  0  0  0  0  0  0  0  0
   -2.0598   -5.4438    1.6502 C   0  0  0  0  0  0  0  0  0  0  0  0
   -2.4168   -5.6137    3.3641 Cl  0  0  0  0  0  0  0  0  0  0  0  0
   -1.3754   -6.4646    0.9745 C   0  0  0  0  0  0  0  0  0  0  0  0
   -1.0814   -6.3286   -0.3928 C   0  0  0  0  0  0  0  0  0  0  0  0
   -0.2240   -7.6351   -1.2105 Cl  0  0  0  0  0  0  0  0  0  0  0  0
   -2.0755   -5.1370   -3.3822 C   0  0  0  0  0  0  0  0  0  0  0  0
   -3.2758   -5.3778   -3.3648 O   0  0  0  0  0  0  0  0  0  0  0  0
   -1.4520   -4.9629   -4.6021 N   0  0  0  0  0  0  0  0  0  0  0  0
   -0.1067   -4.7712   -4.2906 C   0  0  0  0  0  0  0  0  0  0  0  0
    0.6077   -4.5338   -5.2543 O   0  0  0  0  0  0  0  0  0  0  0  0
    2.5498   -4.5407   -2.7144 C   0  0  0  0  0  0  0  0  0  0  0  0
    3.1269   -5.0982   -3.8763 C   0  0  0  0  0  0  0  0  0  0  0  0
    4.5288   -5.0615   -4.0444 C   0  0  0  0  0  0  0  0  0  0  0  0
    5.3673   -4.5423   -3.0353 C   0  0  0  0  0  0  0  0  0  0  0  0
    4.8090   -4.0869   -1.8282 C   0  0  0  0  0  0  0  0  0  0  0  0
    3.4135   -4.1097   -1.7006 C   0  0  0  0  0  0  0  0  0  0  0  0
    1.9038   -1.8949    2.1302 N   0  0  0  0  0  0  0  0  0  0  0  0
    2.1135   -0.7423    1.2352 C   0  0  0  0  0  0  0  0  0  0  0  0
    2.2341    0.5839    2.0180 C   0  0  0  0  0  0  0  0  0  0  0  0
    3.2663    0.4083    3.0013 O   0  0  0  0  0  0  0  0  0  0  0  0
    3.8005    1.5944    3.6160 C   0  0  0  0  0  0  0  0  0  0  0  0
    2.7190    2.3402    4.4310 C   0  0  0  0  0  0  0  0  0  0  0  0
    2.2741    3.4646    3.6564 O   0  0  0  0  0  0  0  0  0  0  0  0
    1.4821    4.4176    4.3785 C   0  0  0  0  0  0  0  0  0  0  0  0
    1.2483    5.6305    3.4583 C   0  0  0  0  0  0  0  0  0  0  0  0
    0.4005    5.2475    2.3219 N   0  0  0  0  0  0  0  0  0  0  0  0
   -0.2445    6.1340    1.4699 C   0  0  0  0  0  0  0  0  0  0  0  0
    0.1378    7.4896    1.3359 C   0  0  0  0  0  0  0  0  0  0  0  0
   -0.5429    8.3518    0.4400 C   0  0  0  0  0  0  0  0  0  0  0  0
   -1.6272    7.8775   -0.3302 C   0  0  0  0  0  0  0  0  0  0  0  0
   -2.0043    6.5374   -0.1761 C   0  0  0  0  0  0  0  0  0  0  0  0
   -1.3243    5.6893    0.6983 C   0  0  0  0  0  0  0  0  0  0  0  0
   -1.9077    4.4467    0.6239 C   0  0  0  0  0  0  0  0  0  0  0  0
   -1.4671    3.3759    1.0292 O   0  0  0  0  0  0  0  0  0  0  0  0
   -2.9363    4.5062   -0.3172 N   0  0  0  0  0  0  0  0  0  0  0  0
   -3.7850    3.3678   -0.7138 C   0  0  0  0  0  0  0  0  0  0  0  0
   -3.2807    2.7780   -2.0447 C   0  0  0  0  0  0  0  0  0  0  0  0
   -4.1662    1.5795   -2.4464 C   0  0  0  0  0  0  0  0  0  0  0  0
   -5.6360    1.9389   -2.4547 C   0  0  0  0  0  0  0  0  0  0  0  0
   -6.4734    1.3044   -3.0759 O   0  0  0  0  0  0  0  0  0  0  0  0
   -6.1113    2.8879   -1.5404 N   0  0  0  0  0  0  0  0  0  0  0  0
   -5.2706    3.7076   -0.7728 C   0  0  0  0  0  0  0  0  0  0  0  0
   -5.8341    4.4389    0.0303 O   0  0  0  0  0  0  0  0  0  0  0  0
   -3.0070    5.8223   -0.7939 C   0  0  0  0  0  0  0  0  0  0  0  0
   -3.5813    6.1018   -1.8397 O   0  0  0  0  0  0  0  0  0  0  0  0
    3.9006   -2.8583    0.7289 H   0  0  0  0  0  0  0  0  0  0  0  0
    3.6165   -4.5440    1.1435 H   0  0  0  0  0  0  0  0  0  0  0  0
    0.5616   -4.1450   -0.1527 H   0  0  0  0  0  0  0  0  0  0  0  0
   -2.4911   -3.2627   -0.9461 H   0  0  0  0  0  0  0  0  0  0  0  0
   -3.0034   -3.5063    1.4829 H   0  0  0  0  0  0  0  0  0  0  0  0
   -1.0678   -7.3576    1.5119 H   0  0  0  0  0  0  0  0  0  0  0  0
   -1.7921   -5.3197   -5.4813 H   0  0  0  0  0  0  0  0  0  0  0  0
    2.5401   -5.6166   -4.6201 H   0  0  0  0  0  0  0  0  0  0  0  0
    4.9694   -5.4729   -4.9494 H   0  0  0  0  0  0  0  0  0  0  0  0
    6.4453   -4.5451   -3.1730 H   0  0  0  0  0  0  0  0  0  0  0  0
    5.4460   -3.7600   -1.0133 H   0  0  0  0  0  0  0  0  0  0  0  0
    1.5230   -1.7195    3.0526 H   0  0  0  0  0  0  0  0  0  0  0  0
    1.2715   -0.6760    0.5334 H   0  0  0  0  0  0  0  0  0  0  0  0
    3.0298   -0.8800    0.6478 H   0  0  0  0  0  0  0  0  0  0  0  0
    1.2763    0.8245    2.4983 H   0  0  0  0  0  0  0  0  0  0  0  0
    2.4854    1.3973    1.3247 H   0  0  0  0  0  0  0  0  0  0  0  0
    4.2285    2.2654    2.8605 H   0  0  0  0  0  0  0  0  0  0  0  0
    4.6119    1.3086    4.2969 H   0  0  0  0  0  0  0  0  0  0  0  0
    3.1701    2.6832    5.3710 H   0  0  0  0  0  0  0  0  0  0  0  0
    1.8865    1.6682    4.6787 H   0  0  0  0  0  0  0  0  0  0  0  0
    0.5208    3.9823    4.6847 H   0  0  0  0  0  0  0  0  0  0  0  0
    2.0128    4.7546    5.2787 H   0  0  0  0  0  0  0  0  0  0  0  0
    0.7606    6.4308    4.0323 H   0  0  0  0  0  0  0  0  0  0  0  0
    2.2161    6.0048    3.0991 H   0  0  0  0  0  0  0  0  0  0  0  0
    0.1326    4.2717    2.2395 H   0  0  0  0  0  0  0  0  0  0  0  0
    0.9727    7.8780    1.9099 H   0  0  0  0  0  0  0  0  0  0  0  0
   -0.2268    9.3881    0.3433 H   0  0  0  0  0  0  0  0  0  0  0  0
   -2.1579    8.5262   -1.0233 H   0  0  0  0  0  0  0  0  0  0  0  0
   -3.6805    2.5977    0.0615 H   0  0  0  0  0  0  0  0  0  0  0  0
   -2.2288    2.4766   -1.9477 H   0  0  0  0  0  0  0  0  0  0  0  0
   -3.3251    3.5515   -2.8249 H   0  0  0  0  0  0  0  0  0  0  0  0
   -3.8774    1.2147   -3.4405 H   0  0  0  0  0  0  0  0  0  0  0  0
   -4.0126    0.7457   -1.7503 H   0  0  0  0  0  0  0  0  0  0  0  0
   -7.1066    3.0455   -1.4871 H   0  0  0  0  0  0  0  0  0  0  0  0
  1  2  2  0  0  0  0
  2  3  1  0  0  0  0
  2 28  1  0  0  0  0
  3  4  1  0  0  0  0
  3 57  1  0  0  0  0
  3 58  1  0  0  0  0
  4  5  1  0  0  0  0
  4 27  1  0  0  0  0
  5  6  2  0  0  0  0
  5 59  1  0  0  0  0
  6  7  1  0  0  0  0
  6 22  1  0  0  0  0
  7  8  2  0  0  0  0
  7 20  1  0  0  0  0
  8  9  1  0  0  0  0
  8 17  1  0  0  0  0
  9 10  2  0  0  0  0
  9 15  1  0  0  0  0
 10 11  1  0  0  0  0
 10 60  1  0  0  0  0
 11 12  2  0  0  0  0
 11 61  1  0  0  0  0
 12 13  1  0  0  0  0
 12 14  1  0  0  0  0
 14 15  2  0  0  0  0
 14 62  1  0  0  0  0
 15 16  1  0  0  0  0
 17 18  2  0  0  0  0
 17 19  1  0  0  0  0
 19 20  1  0  0  0  0
 19 63  1  0  0  0  0
 20 21  2  0  0  0  0
 22 23  2  0  0  0  0
 22 27  1  0  0  0  0
 23 24  1  0  0  0  0
 23 64  1  0  0  0  0
 24 25  2  0  0  0  0
 24 65  1  0  0  0  0
 25 26  1  0  0  0  0
 25 66  1  0  0  0  0
 26 27  2  0  0  0  0
 26 67  1  0  0  0  0
 28 29  1  0  0  0  0
 28 68  1  0  0  0  0
 29 30  1  0  0  0  0
 29 69  1  0  0  0  0
 29 70  1  0  0  0  0
 30 31  1  0  0  0  0
 30 71  1  0  0  0  0
 30 72  1  0  0  0  0
 31 32  1  0  0  0  0
 32 33  1  0  0  0  0
 32 73  1  0  0  0  0
 32 74  1  0  0  0  0
 33 34  1  0  0  0  0
 33 75  1  0  0  0  0
 33 76  1  0  0  0  0
 34 35  1  0  0  0  0
 35 36  1  0  0  0  0
 35 77  1  0  0  0  0
 35 78  1  0  0  0  0
 36 37  1  0  0  0  0
 36 79  1  0  0  0  0
 36 80  1  0  0  0  0
 37 38  1  0  0  0  0
 37 81  1  0  0  0  0
 38 39  2  0  0  0  0
 38 43  1  0  0  0  0
 39 40  1  0  0  0  0
 39 82  1  0  0  0  0
 40 41  2  0  0  0  0
 40 83  1  0  0  0  0
 41 42  1  0  0  0  0
 41 84  1  0  0  0  0
 42 43  2  0  0  0  0
 42 55  1  0  0  0  0
 43 44  1  0  0  0  0
 44 45  2  0  0  0  0
 44 46  1  0  0  0  0
 46 47  1  0  0  0  0
 46 55  1  0  0  0  0
 47 48  1  0  0  0  0
 47 53  1  0  0  0  0
 47 85  1  0  0  0  0
 48 49  1  0  0  0  0
 48 86  1  0  0  0  0
 48 87  1  0  0  0  0
 49 50  1  0  0  0  0
 49 88  1  0  0  0  0
 49 89  1  0  0  0  0
 50 51  2  0  0  0  0
 50 52  1  0  0  0  0
 52 53  1  0  0  0  0
 52 90  1  0  0  0  0
 53 54  2  0  0  0  0
 55 56  2  0  0  0  0
M  END
$$$$
protac3895RUN2
  chem.cr 07102519423D
protac3895RUN2
 90 96  0  0  0  0  0  0  0  0999 V2000
    0.8932   -2.5203   -1.9077 O   0  0  0  0  0  0  0  0  0  0  0  0
    1.0598   -2.6390   -0.7012 C   0  0  0  0  0  0  0  0  0  0  0  0
    0.1501   -3.4633    0.1814 C   0  0  0  0  0  0  0  0  0  0  0  0
    0.6520   -4.8217    0.4517 N   0  0  0  0  0  0  0  0  0  0  0  0
    0.5779   -5.8437   -0.4986 C   0  0  0  0  0  0  0  0  0  0  0  0
    1.5186   -6.7893   -0.2658 C   0  0  0  0  0  0  0  0  0  0  0  0
    1.8488   -7.8494   -1.0722 C   0  0  0  0  0  0  0  0  0  0  0  0
    1.1409   -8.2915   -2.1430 C   0  0  0  0  0  0  0  0  0  0  0  0
   -0.0810   -7.8223   -2.5806 C   0  0  0  0  0  0  0  0  0  0  0  0
   -0.1335   -6.9539   -3.6881 C   0  0  0  0  0  0  0  0  0  0  0  0
   -1.3691   -6.4607   -4.1408 C   0  0  0  0  0  0  0  0  0  0  0  0
   -2.5576   -6.8520   -3.5011 C   0  0  0  0  0  0  0  0  0  0  0  0
   -4.1052   -6.2473   -4.0771 Cl  0  0  0  0  0  0  0  0  0  0  0  0
   -2.5164   -7.7393   -2.4140 C   0  0  0  0  0  0  0  0  0  0  0  0
   -1.2807   -8.2226   -1.9510 C   0  0  0  0  0  0  0  0  0  0  0  0
   -1.2549   -9.3414   -0.5879 Cl  0  0  0  0  0  0  0  0  0  0  0  0
    1.7311   -9.3262   -2.7440 C   0  0  0  0  0  0  0  0  0  0  0  0
    1.4298  -10.0293   -3.6982 O   0  0  0  0  0  0  0  0  0  0  0  0
    2.9139   -9.5819   -2.0797 N   0  0  0  0  0  0  0  0  0  0  0  0
    2.9381   -8.6628   -1.0342 C   0  0  0  0  0  0  0  0  0  0  0  0
    3.9582   -8.7076   -0.3597 O   0  0  0  0  0  0  0  0  0  0  0  0
    2.1357   -6.3967    0.9415 C   0  0  0  0  0  0  0  0  0  0  0  0
    2.9483   -7.0975    1.8605 C   0  0  0  0  0  0  0  0  0  0  0  0
    3.3474   -6.4694    3.0595 C   0  0  0  0  0  0  0  0  0  0  0  0
    2.8958   -5.1736    3.3862 C   0  0  0  0  0  0  0  0  0  0  0  0
    1.9962   -4.5116    2.5343 C   0  0  0  0  0  0  0  0  0  0  0  0
    1.6319   -5.1528    1.3427 C   0  0  0  0  0  0  0  0  0  0  0  0
    1.9429   -1.7648   -0.0450 N   0  0  0  0  0  0  0  0  0  0  0  0
    2.5078   -0.5533   -0.6680 C   0  0  0  0  0  0  0  0  0  0  0  0
    1.5932    0.6824   -0.4673 C   0  0  0  0  0  0  0  0  0  0  0  0
    2.3168    1.7333    0.1961 O   0  0  0  0  0  0  0  0  0  0  0  0
    3.3253    2.4046   -0.5774 C   0  0  0  0  0  0  0  0  0  0  0  0
    3.8599    3.5773    0.2699 C   0  0  0  0  0  0  0  0  0  0  0  0
    3.0327    4.7239    0.0248 O   0  0  0  0  0  0  0  0  0  0  0  0
    3.3916    5.8845    0.7876 C   0  0  0  0  0  0  0  0  0  0  0  0
    2.5356    7.0730    0.3089 C   0  0  0  0  0  0  0  0  0  0  0  0
    1.1029    6.8030    0.5117 N   0  0  0  0  0  0  0  0  0  0  0  0
    0.1176    7.7346    0.8289 C   0  0  0  0  0  0  0  0  0  0  0  0
    0.3832    9.1039    1.0893 C   0  0  0  0  0  0  0  0  0  0  0  0
   -0.6614   10.0040    1.4239 C   0  0  0  0  0  0  0  0  0  0  0  0
   -1.9958    9.5573    1.5097 C   0  0  0  0  0  0  0  0  0  0  0  0
   -2.2500    8.2063    1.2492 C   0  0  0  0  0  0  0  0  0  0  0  0
   -1.2211    7.3245    0.9124 C   0  0  0  0  0  0  0  0  0  0  0  0
   -1.7855    6.0901    0.6825 C   0  0  0  0  0  0  0  0  0  0  0  0
   -1.2762    5.1145    0.1440 O   0  0  0  0  0  0  0  0  0  0  0  0
   -3.1713    6.2028    0.8303 N   0  0  0  0  0  0  0  0  0  0  0  0
   -4.1101    5.0616    0.8039 C   0  0  0  0  0  0  0  0  0  0  0  0
   -5.2589    5.2726   -0.2024 C   0  0  0  0  0  0  0  0  0  0  0  0
   -6.0961    3.9766   -0.2721 C   0  0  0  0  0  0  0  0  0  0  0  0
   -6.5512    3.5179    1.0994 C   0  0  0  0  0  0  0  0  0  0  0  0
   -7.4746    2.7338    1.2650 O   0  0  0  0  0  0  0  0  0  0  0  0
   -5.7553    3.8070    2.2164 N   0  0  0  0  0  0  0  0  0  0  0  0
   -4.6683    4.6945    2.1717 C   0  0  0  0  0  0  0  0  0  0  0  0
   -4.0841    4.8845    3.2294 O   0  0  0  0  0  0  0  0  0  0  0  0
   -3.4412    7.5162    1.2350 C   0  0  0  0  0  0  0  0  0  0  0  0
   -4.5786    7.9677    1.3133 O   0  0  0  0  0  0  0  0  0  0  0  0
   -0.0134   -2.9497    1.1350 H   0  0  0  0  0  0  0  0  0  0  0  0
   -0.8230   -3.5488   -0.3139 H   0  0  0  0  0  0  0  0  0  0  0  0
   -0.1036   -5.7139   -1.3338 H   0  0  0  0  0  0  0  0  0  0  0  0
    0.7890   -6.6542   -4.1807 H   0  0  0  0  0  0  0  0  0  0  0  0
   -1.4050   -5.7818   -4.9888 H   0  0  0  0  0  0  0  0  0  0  0  0
   -3.4379   -8.0516   -1.9316 H   0  0  0  0  0  0  0  0  0  0  0  0
    3.3782  -10.4762   -2.0629 H   0  0  0  0  0  0  0  0  0  0  0  0
    3.2229   -8.1307    1.7187 H   0  0  0  0  0  0  0  0  0  0  0  0
    3.9828   -7.0094    3.7553 H   0  0  0  0  0  0  0  0  0  0  0  0
    3.1952   -4.7164    4.3265 H   0  0  0  0  0  0  0  0  0  0  0  0
    1.5665   -3.5575    2.8205 H   0  0  0  0  0  0  0  0  0  0  0  0
    2.1816   -1.9662    0.9179 H   0  0  0  0  0  0  0  0  0  0  0  0
    2.6527   -0.7263   -1.7434 H   0  0  0  0  0  0  0  0  0  0  0  0
    3.4958   -0.3687   -0.2283 H   0  0  0  0  0  0  0  0  0  0  0  0
    0.7261    0.4027    0.1441 H   0  0  0  0  0  0  0  0  0  0  0  0
    1.2071    1.0256   -1.4362 H   0  0  0  0  0  0  0  0  0  0  0  0
    2.9129    2.7892   -1.5197 H   0  0  0  0  0  0  0  0  0  0  0  0
    4.1531    1.7244   -0.8114 H   0  0  0  0  0  0  0  0  0  0  0  0
    4.8978    3.7905   -0.0178 H   0  0  0  0  0  0  0  0  0  0  0  0
    3.8436    3.2970    1.3319 H   0  0  0  0  0  0  0  0  0  0  0  0
    3.2174    5.7120    1.8592 H   0  0  0  0  0  0  0  0  0  0  0  0
    4.4532    6.1267    0.6421 H   0  0  0  0  0  0  0  0  0  0  0  0
    2.8512    7.9613    0.8653 H   0  0  0  0  0  0  0  0  0  0  0  0
    2.7290    7.2511   -0.7572 H   0  0  0  0  0  0  0  0  0  0  0  0
    0.7812    5.8518    0.3425 H   0  0  0  0  0  0  0  0  0  0  0  0
    1.3926    9.4931    1.0344 H   0  0  0  0  0  0  0  0  0  0  0  0
   -0.4334   11.0509    1.6138 H   0  0  0  0  0  0  0  0  0  0  0  0
   -2.8064   10.2396    1.7568 H   0  0  0  0  0  0  0  0  0  0  0  0
   -3.5389    4.1868    0.4682 H   0  0  0  0  0  0  0  0  0  0  0  0
   -4.8611    5.5421   -1.1898 H   0  0  0  0  0  0  0  0  0  0  0  0
   -5.8975    6.1018    0.1316 H   0  0  0  0  0  0  0  0  0  0  0  0
   -6.9709    4.1269   -0.9168 H   0  0  0  0  0  0  0  0  0  0  0  0
   -5.5043    3.1747   -0.7305 H   0  0  0  0  0  0  0  0  0  0  0  0
   -6.0306    3.4342    3.1128 H   0  0  0  0  0  0  0  0  0  0  0  0
  1  2  2  0  0  0  0
  2  3  1  0  0  0  0
  2 28  1  0  0  0  0
  3  4  1  0  0  0  0
  3 57  1  0  0  0  0
  3 58  1  0  0  0  0
  4  5  1  0  0  0  0
  4 27  1  0  0  0  0
  5  6  2  0  0  0  0
  5 59  1  0  0  0  0
  6  7  1  0  0  0  0
  6 22  1  0  0  0  0
  7  8  2  0  0  0  0
  7 20  1  0  0  0  0
  8  9  1  0  0  0  0
  8 17  1  0  0  0  0
  9 10  2  0  0  0  0
  9 15  1  0  0  0  0
 10 11  1  0  0  0  0
 10 60  1  0  0  0  0
 11 12  2  0  0  0  0
 11 61  1  0  0  0  0
 12 13  1  0  0  0  0
 12 14  1  0  0  0  0
 14 15  2  0  0  0  0
 14 62  1  0  0  0  0
 15 16  1  0  0  0  0
 17 18  2  0  0  0  0
 17 19  1  0  0  0  0
 19 20  1  0  0  0  0
 19 63  1  0  0  0  0
 20 21  2  0  0  0  0
 22 23  2  0  0  0  0
 22 27  1  0  0  0  0
 23 24  1  0  0  0  0
 23 64  1  0  0  0  0
 24 25  2  0  0  0  0
 24 65  1  0  0  0  0
 25 26  1  0  0  0  0
 25 66  1  0  0  0  0
 26 27  2  0  0  0  0
 26 67  1  0  0  0  0
 28 29  1  0  0  0  0
 28 68  1  0  0  0  0
 29 30  1  0  0  0  0
 29 69  1  0  0  0  0
 29 70  1  0  0  0  0
 30 31  1  0  0  0  0
 30 71  1  0  0  0  0
 30 72  1  0  0  0  0
 31 32  1  0  0  0  0
 32 33  1  0  0  0  0
 32 73  1  0  0  0  0
 32 74  1  0  0  0  0
 33 34  1  0  0  0  0
 33 75  1  0  0  0  0
 33 76  1  0  0  0  0
 34 35  1  0  0  0  0
 35 36  1  0  0  0  0
 35 77  1  0  0  0  0
 35 78  1  0  0  0  0
 36 37  1  0  0  0  0
 36 79  1  0  0  0  0
 36 80  1  0  0  0  0
 37 38  1  0  0  0  0
 37 81  1  0  0  0  0
 38 39  2  0  0  0  0
 38 43  1  0  0  0  0
 39 40  1  0  0  0  0
 39 82  1  0  0  0  0
 40 41  2  0  0  0  0
 40 83  1  0  0  0  0
 41 42  1  0  0  0  0
 41 84  1  0  0  0  0
 42 43  2  0  0  0  0
 42 55  1  0  0  0  0
 43 44  1  0  0  0  0
 44 45  2  0  0  0  0
 44 46  1  0  0  0  0
 46 47  1  0  0  0  0
 46 55  1  0  0  0  0
 47 48  1  0  0  0  0
 47 53  1  0  0  0  0
 47 85  1  0  0  0  0
 48 49  1  0  0  0  0
 48 86  1  0  0  0  0
 48 87  1  0  0  0  0
 49 50  1  0  0  0  0
 49 88  1  0  0  0  0
 49 89  1  0  0  0  0
 50 51  2  0  0  0  0
 50 52  1  0  0  0  0
 52 53  1  0  0  0  0
 52 90  1  0  0  0  0
 53 54  2  0  0  0  0
 55 56  2  0  0  0  0
M  END
$$$$
protac3895RUN2
  chem.cr 07102519423D
protac3895RUN2
 90 96  0  0  0  0  0  0  0  0999 V2000
   -0.0975   -3.8479    0.4798 O   0  0  0  0  0  0  0  0  0  0  0  0
    0.7181   -3.2620   -0.2149 C   0  0  0  0  0  0  0  0  0  0  0  0
    1.9233   -3.9532   -0.8310 C   0  0  0  0  0  0  0  0  0  0  0  0
    3.2320   -3.5635   -0.2534 N   0  0  0  0  0  0  0  0  0  0  0  0
    3.2944   -3.0955    1.0657 C   0  0  0  0  0  0  0  0  0  0  0  0
    4.1434   -2.0479    1.1797 C   0  0  0  0  0  0  0  0  0  0  0  0
    4.2934   -1.2106    2.2578 C   0  0  0  0  0  0  0  0  0  0  0  0
    3.7490   -1.3798    3.4904 C   0  0  0  0  0  0  0  0  0  0  0  0
    2.9584   -2.4294    3.9078 C   0  0  0  0  0  0  0  0  0  0  0  0
    3.5614   -3.6141    4.3689 C   0  0  0  0  0  0  0  0  0  0  0  0
    2.7675   -4.6921    4.7975 C   0  0  0  0  0  0  0  0  0  0  0  0
    1.3680   -4.5857    4.7697 C   0  0  0  0  0  0  0  0  0  0  0  0
    0.3734   -5.9278    5.3155 Cl  0  0  0  0  0  0  0  0  0  0  0  0
    0.7585   -3.4041    4.3158 C   0  0  0  0  0  0  0  0  0  0  0  0
    1.5509   -2.3270    3.8882 C   0  0  0  0  0  0  0  0  0  0  0  0
    0.7645   -0.8604    3.3083 Cl  0  0  0  0  0  0  0  0  0  0  0  0
    4.0314   -0.3679    4.3091 C   0  0  0  0  0  0  0  0  0  0  0  0
    3.7181   -0.1066    5.4628 O   0  0  0  0  0  0  0  0  0  0  0  0
    4.8277    0.5261    3.6233 N   0  0  0  0  0  0  0  0  0  0  0  0
    4.9216   -0.0094    2.3407 C   0  0  0  0  0  0  0  0  0  0  0  0
    5.4499    0.7374    1.5281 O   0  0  0  0  0  0  0  0  0  0  0  0
    4.7635   -1.9514   -0.0838 C   0  0  0  0  0  0  0  0  0  0  0  0
    5.9202   -1.2766   -0.5288 C   0  0  0  0  0  0  0  0  0  0  0  0
    6.3343   -1.4156   -1.8727 C   0  0  0  0  0  0  0  0  0  0  0  0
    5.6595   -2.2859   -2.7532 C   0  0  0  0  0  0  0  0  0  0  0  0
    4.5777   -3.0503   -2.2863 C   0  0  0  0  0  0  0  0  0  0  0  0
    4.1663   -2.8626   -0.9597 C   0  0  0  0  0  0  0  0  0  0  0  0
    0.6708   -1.8630   -0.1580 N   0  0  0  0  0  0  0  0  0  0  0  0
    1.3008   -0.9314   -1.1061 C   0  0  0  0  0  0  0  0  0  0  0  0
    1.8633    0.3028   -0.3576 C   0  0  0  0  0  0  0  0  0  0  0  0
    1.6345    1.5159   -1.1082 O   0  0  0  0  0  0  0  0  0  0  0  0
    0.2774    1.9380   -1.4053 C   0  0  0  0  0  0  0  0  0  0  0  0
   -0.6195    1.9421   -0.1411 C   0  0  0  0  0  0  0  0  0  0  0  0
   -1.1019    0.6049    0.0524 O   0  0  0  0  0  0  0  0  0  0  0  0
   -2.0003    0.4069    1.1497 C   0  0  0  0  0  0  0  0  0  0  0  0
   -2.6400   -0.9955    0.9801 C   0  0  0  0  0  0  0  0  0  0  0  0
   -3.6755   -0.9714   -0.0673 N   0  0  0  0  0  0  0  0  0  0  0  0
   -3.3560   -0.5489   -1.3507 C   0  0  0  0  0  0  0  0  0  0  0  0
   -2.4566   -1.2553   -2.1794 C   0  0  0  0  0  0  0  0  0  0  0  0
   -2.0770   -0.7358   -3.4433 C   0  0  0  0  0  0  0  0  0  0  0  0
   -2.5649    0.5169   -3.8825 C   0  0  0  0  0  0  0  0  0  0  0  0
   -3.4449    1.2087   -3.0407 C   0  0  0  0  0  0  0  0  0  0  0  0
   -3.8458    0.6732   -1.8195 C   0  0  0  0  0  0  0  0  0  0  0  0
   -4.6381    1.6000   -1.1927 C   0  0  0  0  0  0  0  0  0  0  0  0
   -5.1700    1.5362   -0.0892 O   0  0  0  0  0  0  0  0  0  0  0  0
   -4.7017    2.7510   -1.9791 N   0  0  0  0  0  0  0  0  0  0  0  0
   -4.8477    4.0942   -1.3820 C   0  0  0  0  0  0  0  0  0  0  0  0
   -6.2640    4.6350   -1.6492 C   0  0  0  0  0  0  0  0  0  0  0  0
   -6.4089    6.0288   -1.0019 C   0  0  0  0  0  0  0  0  0  0  0  0
   -5.3238    6.9706   -1.4742 C   0  0  0  0  0  0  0  0  0  0  0  0
   -5.4455    8.1849   -1.4696 O   0  0  0  0  0  0  0  0  0  0  0  0
   -4.0389    6.4610   -1.6956 N   0  0  0  0  0  0  0  0  0  0  0  0
   -3.7602    5.0884   -1.7864 C   0  0  0  0  0  0  0  0  0  0  0  0
   -2.5703    4.7996   -1.8200 O   0  0  0  0  0  0  0  0  0  0  0  0
   -3.9845    2.4719   -3.1545 C   0  0  0  0  0  0  0  0  0  0  0  0
   -4.1267    3.1422   -4.1704 O   0  0  0  0  0  0  0  0  0  0  0  0
    1.8051   -5.0352   -0.7014 H   0  0  0  0  0  0  0  0  0  0  0  0
    1.9294   -3.7573   -1.9080 H   0  0  0  0  0  0  0  0  0  0  0  0
    2.5811   -3.5101    1.7721 H   0  0  0  0  0  0  0  0  0  0  0  0
    4.6459   -3.6903    4.3981 H   0  0  0  0  0  0  0  0  0  0  0  0
    3.2389   -5.6026    5.1608 H   0  0  0  0  0  0  0  0  0  0  0  0
   -0.3231   -3.3205    4.3004 H   0  0  0  0  0  0  0  0  0  0  0  0
    4.8565    1.5147    3.8141 H   0  0  0  0  0  0  0  0  0  0  0  0
    6.5432   -0.6960    0.1346 H   0  0  0  0  0  0  0  0  0  0  0  0
    7.2091   -0.8750   -2.2227 H   0  0  0  0  0  0  0  0  0  0  0  0
    6.0099   -2.3996   -3.7760 H   0  0  0  0  0  0  0  0  0  0  0  0
    4.0982   -3.7831   -2.9270 H   0  0  0  0  0  0  0  0  0  0  0  0
    0.0419   -1.4589    0.5269 H   0  0  0  0  0  0  0  0  0  0  0  0
    0.5400   -0.6289   -1.8346 H   0  0  0  0  0  0  0  0  0  0  0  0
    2.1173   -1.4126   -1.6547 H   0  0  0  0  0  0  0  0  0  0  0  0
    2.9403    0.1587   -0.2039 H   0  0  0  0  0  0  0  0  0  0  0  0
    1.4166    0.3872    0.6416 H   0  0  0  0  0  0  0  0  0  0  0  0
   -0.1816    1.3155   -2.1836 H   0  0  0  0  0  0  0  0  0  0  0  0
    0.3084    2.9593   -1.8041 H   0  0  0  0  0  0  0  0  0  0  0  0
   -1.4637    2.6246   -0.3080 H   0  0  0  0  0  0  0  0  0  0  0  0
   -0.0521    2.2974    0.7281 H   0  0  0  0  0  0  0  0  0  0  0  0
   -1.4595    0.4615    2.1018 H   0  0  0  0  0  0  0  0  0  0  0  0
   -2.7824    1.1753    1.1609 H   0  0  0  0  0  0  0  0  0  0  0  0
   -1.8732   -1.7395    0.7355 H   0  0  0  0  0  0  0  0  0  0  0  0
   -3.0940   -1.2944    1.9342 H   0  0  0  0  0  0  0  0  0  0  0  0
   -4.5626   -0.5924    0.2457 H   0  0  0  0  0  0  0  0  0  0  0  0
   -2.0421   -2.1983   -1.8357 H   0  0  0  0  0  0  0  0  0  0  0  0
   -1.3869   -1.2957   -4.0685 H   0  0  0  0  0  0  0  0  0  0  0  0
   -2.2544    0.9490   -4.8315 H   0  0  0  0  0  0  0  0  0  0  0  0
   -4.7398    3.9790   -0.2944 H   0  0  0  0  0  0  0  0  0  0  0  0
   -7.0122    3.9364   -1.2468 H   0  0  0  0  0  0  0  0  0  0  0  0
   -6.4293    4.7027   -2.7339 H   0  0  0  0  0  0  0  0  0  0  0  0
   -7.3916    6.4544   -1.2400 H   0  0  0  0  0  0  0  0  0  0  0  0
   -6.3607    5.9465    0.0922 H   0  0  0  0  0  0  0  0  0  0  0  0
   -3.2876    7.1150   -1.8548 H   0  0  0  0  0  0  0  0  0  0  0  0
  1  2  2  0  0  0  0
  2  3  1  0  0  0  0
  2 28  1  0  0  0  0
  3  4  1  0  0  0  0
  3 57  1  0  0  0  0
  3 58  1  0  0  0  0
  4  5  1  0  0  0  0
  4 27  1  0  0  0  0
  5  6  2  0  0  0  0
  5 59  1  0  0  0  0
  6  7  1  0  0  0  0
  6 22  1  0  0  0  0
  7  8  2  0  0  0  0
  7 20  1  0  0  0  0
  8  9  1  0  0  0  0
  8 17  1  0  0  0  0
  9 10  2  0  0  0  0
  9 15  1  0  0  0  0
 10 11  1  0  0  0  0
 10 60  1  0  0  0  0
 11 12  2  0  0  0  0
 11 61  1  0  0  0  0
 12 13  1  0  0  0  0
 12 14  1  0  0  0  0
 14 15  2  0  0  0  0
 14 62  1  0  0  0  0
 15 16  1  0  0  0  0
 17 18  2  0  0  0  0
 17 19  1  0  0  0  0
 19 20  1  0  0  0  0
 19 63  1  0  0  0  0
 20 21  2  0  0  0  0
 22 23  2  0  0  0  0
 22 27  1  0  0  0  0
 23 24  1  0  0  0  0
 23 64  1  0  0  0  0
 24 25  2  0  0  0  0
 24 65  1  0  0  0  0
 25 26  1  0  0  0  0
 25 66  1  0  0  0  0
 26 27  2  0  0  0  0
 26 67  1  0  0  0  0
 28 29  1  0  0  0  0
 28 68  1  0  0  0  0
 29 30  1  0  0  0  0
 29 69  1  0  0  0  0
 29 70  1  0  0  0  0
 30 31  1  0  0  0  0
 30 71  1  0  0  0  0
 30 72  1  0  0  0  0
 31 32  1  0  0  0  0
 32 33  1  0  0  0  0
 32 73  1  0  0  0  0
 32 74  1  0  0  0  0
 33 34  1  0  0  0  0
 33 75  1  0  0  0  0
 33 76  1  0  0  0  0
 34 35  1  0  0  0  0
 35 36  1  0  0  0  0
 35 77  1  0  0  0  0
 35 78  1  0  0  0  0
 36 37  1  0  0  0  0
 36 79  1  0  0  0  0
 36 80  1  0  0  0  0
 37 38  1  0  0  0  0
 37 81  1  0  0  0  0
 38 39  2  0  0  0  0
 38 43  1  0  0  0  0
 39 40  1  0  0  0  0
 39 82  1  0  0  0  0
 40 41  2  0  0  0  0
 40 83  1  0  0  0  0
 41 42  1  0  0  0  0
 41 84  1  0  0  0  0
 42 43  2  0  0  0  0
 42 55  1  0  0  0  0
 43 44  1  0  0  0  0
 44 45  2  0  0  0  0
 44 46  1  0  0  0  0
 46 47  1  0  0  0  0
 46 55  1  0  0  0  0
 47 48  1  0  0  0  0
 47 53  1  0  0  0  0
 47 85  1  0  0  0  0
 48 49  1  0  0  0  0
 48 86  1  0  0  0  0
 48 87  1  0  0  0  0
 49 50  1  0  0  0  0
 49 88  1  0  0  0  0
 49 89  1  0  0  0  0
 50 51  2  0  0  0  0
 50 52  1  0  0  0  0
 52 53  1  0  0  0  0
 52 90  1  0  0  0  0
 53 54  2  0  0  0  0
 55 56  2  0  0  0  0
M  END
$$$$
protac3895RUN2
  chem.cr 07102519423D
protac3895RUN2
 90 96  0  0  0  0  0  0  0  0999 V2000
    1.0397   -0.0287   -1.3352 O   0  0  0  0  0  0  0  0  0  0  0  0
    1.5166   -0.2416   -0.2320 C   0  0  0  0  0  0  0  0  0  0  0  0
    2.6844   -1.1783    0.0041 C   0  0  0  0  0  0  0  0  0  0  0  0
    3.9516   -0.4863    0.3241 N   0  0  0  0  0  0  0  0  0  0  0  0
    4.7790   -0.9863    1.3369 C   0  0  0  0  0  0  0  0  0  0  0  0
    6.0891   -0.7888    1.0623 C   0  0  0  0  0  0  0  0  0  0  0  0
    7.1588   -1.0469    1.8918 C   0  0  0  0  0  0  0  0  0  0  0  0
    7.1168   -1.7450    3.0615 C   0  0  0  0  0  0  0  0  0  0  0  0
    6.0163   -2.3630    3.6270 C   0  0  0  0  0  0  0  0  0  0  0  0
    5.5433   -3.5766    3.0864 C   0  0  0  0  0  0  0  0  0  0  0  0
    4.4117   -4.2067    3.6326 C   0  0  0  0  0  0  0  0  0  0  0  0
    3.7625   -3.6481    4.7445 C   0  0  0  0  0  0  0  0  0  0  0  0
    2.3501   -4.4519    5.4225 Cl  0  0  0  0  0  0  0  0  0  0  0  0
    4.2423   -2.4563    5.3131 C   0  0  0  0  0  0  0  0  0  0  0  0
    5.3560   -1.8035    4.7473 C   0  0  0  0  0  0  0  0  0  0  0  0
    5.8949   -0.2761    5.4482 Cl  0  0  0  0  0  0  0  0  0  0  0  0
    8.3200   -1.8339    3.6357 C   0  0  0  0  0  0  0  0  0  0  0  0
    8.7334   -2.3957    4.6431 O   0  0  0  0  0  0  0  0  0  0  0  0
    9.2120   -1.1308    2.8560 N   0  0  0  0  0  0  0  0  0  0  0  0
    8.4619   -0.6604    1.7802 C   0  0  0  0  0  0  0  0  0  0  0  0
    9.0850    0.0580    1.0129 O   0  0  0  0  0  0  0  0  0  0  0  0
    6.0986   -0.2189   -0.2271 C   0  0  0  0  0  0  0  0  0  0  0  0
    7.1254   -0.0450   -1.1830 C   0  0  0  0  0  0  0  0  0  0  0  0
    6.8194    0.5163   -2.4436 C   0  0  0  0  0  0  0  0  0  0  0  0
    5.4914    0.8392   -2.7904 C   0  0  0  0  0  0  0  0  0  0  0  0
    4.4480    0.5579   -1.8916 C   0  0  0  0  0  0  0  0  0  0  0  0
    4.7824    0.0164   -0.6417 C   0  0  0  0  0  0  0  0  0  0  0  0
    0.9137    0.4247    0.8414 N   0  0  0  0  0  0  0  0  0  0  0  0
    0.6931   -0.1849    2.1585 C   0  0  0  0  0  0  0  0  0  0  0  0
   -0.4639   -1.2090    2.1342 C   0  0  0  0  0  0  0  0  0  0  0  0
   -1.6968   -0.5027    1.9314 O   0  0  0  0  0  0  0  0  0  0  0  0
   -2.3124   -0.6674    0.6397 C   0  0  0  0  0  0  0  0  0  0  0  0
   -3.6896    0.0205    0.6725 C   0  0  0  0  0  0  0  0  0  0  0  0
   -4.5009   -0.6523    1.6548 O   0  0  0  0  0  0  0  0  0  0  0  0
   -5.8810   -0.2593    1.7194 C   0  0  0  0  0  0  0  0  0  0  0  0
   -6.7269   -1.3140    0.9685 C   0  0  0  0  0  0  0  0  0  0  0  0
   -7.1063   -0.8177   -0.3624 N   0  0  0  0  0  0  0  0  0  0  0  0
   -6.3126   -1.0317   -1.4790 C   0  0  0  0  0  0  0  0  0  0  0  0
   -5.7719   -2.2946   -1.8127 C   0  0  0  0  0  0  0  0  0  0  0  0
   -4.8944   -2.4357   -2.9178 C   0  0  0  0  0  0  0  0  0  0  0  0
   -4.5247   -1.3128   -3.6908 C   0  0  0  0  0  0  0  0  0  0  0  0
   -5.0589   -0.0675   -3.3370 C   0  0  0  0  0  0  0  0  0  0  0  0
   -5.9491    0.0609   -2.2747 C   0  0  0  0  0  0  0  0  0  0  0  0
   -6.2421    1.3937   -2.1285 C   0  0  0  0  0  0  0  0  0  0  0  0
   -6.9553    1.9300   -1.2840 O   0  0  0  0  0  0  0  0  0  0  0  0
   -5.5094    2.1322   -3.0614 N   0  0  0  0  0  0  0  0  0  0  0  0
   -5.0481    3.5077   -2.7835 C   0  0  0  0  0  0  0  0  0  0  0  0
   -5.2775    4.4340   -3.9937 C   0  0  0  0  0  0  0  0  0  0  0  0
   -4.7718    5.8545   -3.6576 C   0  0  0  0  0  0  0  0  0  0  0  0
   -3.3400    5.8449   -3.1640 C   0  0  0  0  0  0  0  0  0  0  0  0
   -2.6014    6.8131   -3.2365 O   0  0  0  0  0  0  0  0  0  0  0  0
   -2.8714    4.7372   -2.4433 N   0  0  0  0  0  0  0  0  0  0  0  0
   -3.6014    3.5497   -2.2979 C   0  0  0  0  0  0  0  0  0  0  0  0
   -3.1030    2.6989   -1.5718 O   0  0  0  0  0  0  0  0  0  0  0  0
   -4.7960    1.1938   -3.8282 C   0  0  0  0  0  0  0  0  0  0  0  0
   -4.0352    1.5156   -4.7321 O   0  0  0  0  0  0  0  0  0  0  0  0
    2.4402   -1.9050    0.7864 H   0  0  0  0  0  0  0  0  0  0  0  0
    2.8415   -1.7478   -0.9209 H   0  0  0  0  0  0  0  0  0  0  0  0
    4.3031   -1.3739    2.2299 H   0  0  0  0  0  0  0  0  0  0  0  0
    6.0490   -4.0207    2.2311 H   0  0  0  0  0  0  0  0  0  0  0  0
    4.0480   -5.1364    3.2044 H   0  0  0  0  0  0  0  0  0  0  0  0
    3.7501   -2.0344    6.1879 H   0  0  0  0  0  0  0  0  0  0  0  0
   10.2147   -1.2323    2.8771 H   0  0  0  0  0  0  0  0  0  0  0  0
    8.1372   -0.3794   -1.0102 H   0  0  0  0  0  0  0  0  0  0  0  0
    7.6134    0.6738   -3.1692 H   0  0  0  0  0  0  0  0  0  0  0  0
    5.2662    1.2527   -3.7715 H   0  0  0  0  0  0  0  0  0  0  0  0
    3.4136    0.7438   -2.1698 H   0  0  0  0  0  0  0  0  0  0  0  0
    0.2865    1.1755    0.5766 H   0  0  0  0  0  0  0  0  0  0  0  0
    0.4419    0.6057    2.8776 H   0  0  0  0  0  0  0  0  0  0  0  0
    1.6145   -0.6651    2.5101 H   0  0  0  0  0  0  0  0  0  0  0  0
   -0.5037   -1.7293    3.0993 H   0  0  0  0  0  0  0  0  0  0  0  0
   -0.2927   -1.9586    1.3508 H   0  0  0  0  0  0  0  0  0  0  0  0
   -2.4533   -1.7306    0.4020 H   0  0  0  0  0  0  0  0  0  0  0  0
   -1.6969   -0.2116   -0.1478 H   0  0  0  0  0  0  0  0  0  0  0  0
   -4.1456   -0.0417   -0.3205 H   0  0  0  0  0  0  0  0  0  0  0  0
   -3.5635    1.0832    0.9173 H   0  0  0  0  0  0  0  0  0  0  0  0
   -6.2044   -0.2337    2.7675 H   0  0  0  0  0  0  0  0  0  0  0  0
   -6.0386    0.7442    1.3007 H   0  0  0  0  0  0  0  0  0  0  0  0
   -6.1628   -2.2541    0.9021 H   0  0  0  0  0  0  0  0  0  0  0  0
   -7.6410   -1.5104    1.5457 H   0  0  0  0  0  0  0  0  0  0  0  0
   -7.5323    0.1046   -0.3643 H   0  0  0  0  0  0  0  0  0  0  0  0
   -6.0176   -3.1658   -1.2126 H   0  0  0  0  0  0  0  0  0  0  0  0
   -4.4750   -3.4111   -3.1527 H   0  0  0  0  0  0  0  0  0  0  0  0
   -3.8189   -1.4036   -4.5132 H   0  0  0  0  0  0  0  0  0  0  0  0
   -5.6592    3.9009   -1.9571 H   0  0  0  0  0  0  0  0  0  0  0  0
   -6.3421    4.4518   -4.2576 H   0  0  0  0  0  0  0  0  0  0  0  0
   -4.7351    4.0450   -4.8666 H   0  0  0  0  0  0  0  0  0  0  0  0
   -4.8459    6.4953   -4.5427 H   0  0  0  0  0  0  0  0  0  0  0  0
   -5.4081    6.3158   -2.8906 H   0  0  0  0  0  0  0  0  0  0  0  0
   -1.9414    4.7740   -2.0518 H   0  0  0  0  0  0  0  0  0  0  0  0
  1  2  2  0  0  0  0
  2  3  1  0  0  0  0
  2 28  1  0  0  0  0
  3  4  1  0  0  0  0
  3 57  1  0  0  0  0
  3 58  1  0  0  0  0
  4  5  1  0  0  0  0
  4 27  1  0  0  0  0
  5  6  2  0  0  0  0
  5 59  1  0  0  0  0
  6  7  1  0  0  0  0
  6 22  1  0  0  0  0
  7  8  2  0  0  0  0
  7 20  1  0  0  0  0
  8  9  1  0  0  0  0
  8 17  1  0  0  0  0
  9 10  2  0  0  0  0
  9 15  1  0  0  0  0
 10 11  1  0  0  0  0
 10 60  1  0  0  0  0
 11 12  2  0  0  0  0
 11 61  1  0  0  0  0
 12 13  1  0  0  0  0
 12 14  1  0  0  0  0
 14 15  2  0  0  0  0
 14 62  1  0  0  0  0
 15 16  1  0  0  0  0
 17 18  2  0  0  0  0
 17 19  1  0  0  0  0
 19 20  1  0  0  0  0
 19 63  1  0  0  0  0
 20 21  2  0  0  0  0
 22 23  2  0  0  0  0
 22 27  1  0  0  0  0
 23 24  1  0  0  0  0
 23 64  1  0  0  0  0
 24 25  2  0  0  0  0
 24 65  1  0  0  0  0
 25 26  1  0  0  0  0
 25 66  1  0  0  0  0
 26 27  2  0  0  0  0
 26 67  1  0  0  0  0
 28 29  1  0  0  0  0
 28 68  1  0  0  0  0
 29 30  1  0  0  0  0
 29 69  1  0  0  0  0
 29 70  1  0  0  0  0
 30 31  1  0  0  0  0
 30 71  1  0  0  0  0
 30 72  1  0  0  0  0
 31 32  1  0  0  0  0
 32 33  1  0  0  0  0
 32 73  1  0  0  0  0
 32 74  1  0  0  0  0
 33 34  1  0  0  0  0
 33 75  1  0  0  0  0
 33 76  1  0  0  0  0
 34 35  1  0  0  0  0
 35 36  1  0  0  0  0
 35 77  1  0  0  0  0
 35 78  1  0  0  0  0
 36 37  1  0  0  0  0
 36 79  1  0  0  0  0
 36 80  1  0  0  0  0
 37 38  1  0  0  0  0
 37 81  1  0  0  0  0
 38 39  2  0  0  0  0
 38 43  1  0  0  0  0
 39 40  1  0  0  0  0
 39 82  1  0  0  0  0
 40 41  2  0  0  0  0
 40 83  1  0  0  0  0
 41 42  1  0  0  0  0
 41 84  1  0  0  0  0
 42 43  2  0  0  0  0
 42 55  1  0  0  0  0
 43 44  1  0  0  0  0
 44 45  2  0  0  0  0
 44 46  1  0  0  0  0
 46 47  1  0  0  0  0
 46 55  1  0  0  0  0
 47 48  1  0  0  0  0
 47 53  1  0  0  0  0
 47 85  1  0  0  0  0
 48 49  1  0  0  0  0
 48 86  1  0  0  0  0
 48 87  1  0  0  0  0
 49 50  1  0  0  0  0
 49 88  1  0  0  0  0
 49 89  1  0  0  0  0
 50 51  2  0  0  0  0
 50 52  1  0  0  0  0
 52 53  1  0  0  0  0
 52 90  1  0  0  0  0
 53 54  2  0  0  0  0
 55 56  2  0  0  0  0
M  END
$$$$
protac3895RUN2
  chem.cr 07102519423D
protac3895RUN2
 90 96  0  0  0  0  0  0  0  0999 V2000
   -1.0635   -5.0601   -3.3929 O   0  0  0  0  0  0  0  0  0  0  0  0
   -0.4181   -4.5127   -2.5122 C   0  0  0  0  0  0  0  0  0  0  0  0
    1.0207   -4.8659   -2.1986 C   0  0  0  0  0  0  0  0  0  0  0  0
    2.0583   -3.8595   -2.5322 N   0  0  0  0  0  0  0  0  0  0  0  0
    3.2954   -3.8627   -1.8806 C   0  0  0  0  0  0  0  0  0  0  0  0
    3.8930   -2.6549   -1.9712 C   0  0  0  0  0  0  0  0  0  0  0  0
    5.0407   -2.2396   -1.3427 C   0  0  0  0  0  0  0  0  0  0  0  0
    5.9152   -3.0175   -0.6610 C   0  0  0  0  0  0  0  0  0  0  0  0
    5.8583   -4.3867   -0.4896 C   0  0  0  0  0  0  0  0  0  0  0  0
    6.4545   -5.2289   -1.4465 C   0  0  0  0  0  0  0  0  0  0  0  0
    6.4308   -6.6251   -1.2776 C   0  0  0  0  0  0  0  0  0  0  0  0
    5.8039   -7.1818   -0.1521 C   0  0  0  0  0  0  0  0  0  0  0  0
    5.7735   -8.9268    0.0648 Cl  0  0  0  0  0  0  0  0  0  0  0  0
    5.2115   -6.3478    0.8101 C   0  0  0  0  0  0  0  0  0  0  0  0
    5.2464   -4.9528    0.6501 C   0  0  0  0  0  0  0  0  0  0  0  0
    4.5056   -3.9294    1.8801 Cl  0  0  0  0  0  0  0  0  0  0  0  0
    6.9141   -2.3067   -0.1362 C   0  0  0  0  0  0  0  0  0  0  0  0
    7.8871   -2.5989    0.5428 O   0  0  0  0  0  0  0  0  0  0  0  0
    6.7277   -0.9849   -0.4873 N   0  0  0  0  0  0  0  0  0  0  0  0
    5.5260   -0.9780   -1.1916 C   0  0  0  0  0  0  0  0  0  0  0  0
    5.0973    0.1387   -1.4397 O   0  0  0  0  0  0  0  0  0  0  0  0
    3.0624   -1.9006   -2.8235 C   0  0  0  0  0  0  0  0  0  0  0  0
    3.3146   -0.7277   -3.5698 C   0  0  0  0  0  0  0  0  0  0  0  0
    2.3361   -0.2364   -4.4585 C   0  0  0  0  0  0  0  0  0  0  0  0
    1.1433   -0.9498   -4.6830 C   0  0  0  0  0  0  0  0  0  0  0  0
    0.9408   -2.1876   -4.0510 C   0  0  0  0  0  0  0  0  0  0  0  0
    1.9058   -2.6331   -3.1312 C   0  0  0  0  0  0  0  0  0  0  0  0
   -1.1166   -3.6029   -1.7106 N   0  0  0  0  0  0  0  0  0  0  0  0
   -0.5767   -2.9329   -0.5195 C   0  0  0  0  0  0  0  0  0  0  0  0
   -1.6716   -2.1009    0.1745 C   0  0  0  0  0  0  0  0  0  0  0  0
   -1.2409   -1.7754    1.5013 O   0  0  0  0  0  0  0  0  0  0  0  0
   -0.2460   -0.7471    1.6066 C   0  0  0  0  0  0  0  0  0  0  0  0
   -0.0686   -0.4222    3.1014 C   0  0  0  0  0  0  0  0  0  0  0  0
   -1.2659    0.2299    3.5408 O   0  0  0  0  0  0  0  0  0  0  0  0
   -1.2138    0.8249    4.8434 C   0  0  0  0  0  0  0  0  0  0  0  0
   -2.5847    1.4822    5.0885 C   0  0  0  0  0  0  0  0  0  0  0  0
   -2.8504    2.4334    4.0016 N   0  0  0  0  0  0  0  0  0  0  0  0
   -3.8624    3.3811    3.9613 C   0  0  0  0  0  0  0  0  0  0  0  0
   -4.7233    3.6442    5.0516 C   0  0  0  0  0  0  0  0  0  0  0  0
   -5.7463    4.6192    4.9488 C   0  0  0  0  0  0  0  0  0  0  0  0
   -5.9294    5.3487    3.7548 C   0  0  0  0  0  0  0  0  0  0  0  0
   -5.0730    5.0734    2.6824 C   0  0  0  0  0  0  0  0  0  0  0  0
   -4.0632    4.1175    2.7887 C   0  0  0  0  0  0  0  0  0  0  0  0
   -3.3955    4.0702    1.5864 C   0  0  0  0  0  0  0  0  0  0  0  0
   -2.3345    3.5145    1.3207 O   0  0  0  0  0  0  0  0  0  0  0  0
   -3.9614    5.0193    0.7340 N   0  0  0  0  0  0  0  0  0  0  0  0
   -3.7197    5.0797   -0.7157 C   0  0  0  0  0  0  0  0  0  0  0  0
   -3.1066    6.4410   -1.0957 C   0  0  0  0  0  0  0  0  0  0  0  0
   -2.8840    6.4907   -2.6206 C   0  0  0  0  0  0  0  0  0  0  0  0
   -4.1384    6.1451   -3.3939 C   0  0  0  0  0  0  0  0  0  0  0  0
   -4.3227    6.4894   -4.5503 O   0  0  0  0  0  0  0  0  0  0  0  0
   -5.0209    5.1953   -2.8660 N   0  0  0  0  0  0  0  0  0  0  0  0
   -4.9650    4.7590   -1.5348 C   0  0  0  0  0  0  0  0  0  0  0  0
   -5.7907    3.9128   -1.2168 O   0  0  0  0  0  0  0  0  0  0  0  0
   -5.0302    5.6120    1.4183 C   0  0  0  0  0  0  0  0  0  0  0  0
   -5.6080    6.6117    1.0058 O   0  0  0  0  0  0  0  0  0  0  0  0
    1.1025   -5.1126   -1.1345 H   0  0  0  0  0  0  0  0  0  0  0  0
    1.2606   -5.7782   -2.7550 H   0  0  0  0  0  0  0  0  0  0  0  0
    3.5758   -4.7496   -1.3231 H   0  0  0  0  0  0  0  0  0  0  0  0
    6.9464   -4.7969   -2.3145 H   0  0  0  0  0  0  0  0  0  0  0  0
    6.9054   -7.2713   -2.0119 H   0  0  0  0  0  0  0  0  0  0  0  0
    4.7384   -6.7820    1.6864 H   0  0  0  0  0  0  0  0  0  0  0  0
    7.0547   -0.2063    0.0633 H   0  0  0  0  0  0  0  0  0  0  0  0
    4.2676   -0.2210   -3.5438 H   0  0  0  0  0  0  0  0  0  0  0  0
    2.5245    0.6785   -5.0138 H   0  0  0  0  0  0  0  0  0  0  0  0
    0.4138   -0.5774   -5.3981 H   0  0  0  0  0  0  0  0  0  0  0  0
    0.0788   -2.7880   -4.3182 H   0  0  0  0  0  0  0  0  0  0  0  0
   -2.0738   -3.4130   -1.9827 H   0  0  0  0  0  0  0  0  0  0  0  0
    0.2626   -2.2838   -0.8100 H   0  0  0  0  0  0  0  0  0  0  0  0
   -0.2120   -3.6892    0.1876 H   0  0  0  0  0  0  0  0  0  0  0  0
   -2.5947   -2.6918    0.2372 H   0  0  0  0  0  0  0  0  0  0  0  0
   -1.8908   -1.1961   -0.4100 H   0  0  0  0  0  0  0  0  0  0  0  0
   -0.5625    0.1603    1.0735 H   0  0  0  0  0  0  0  0  0  0  0  0
    0.7096   -1.0825    1.1869 H   0  0  0  0  0  0  0  0  0  0  0  0
    0.7989    0.2375    3.2201 H   0  0  0  0  0  0  0  0  0  0  0  0
    0.1067   -1.3453    3.6681 H   0  0  0  0  0  0  0  0  0  0  0  0
   -1.0049    0.0771    5.6205 H   0  0  0  0  0  0  0  0  0  0  0  0
   -0.4338    1.5975    4.8825 H   0  0  0  0  0  0  0  0  0  0  0  0
   -3.3642    0.7076    5.1037 H   0  0  0  0  0  0  0  0  0  0  0  0
   -2.5748    1.9976    6.0566 H   0  0  0  0  0  0  0  0  0  0  0  0
   -2.3197    2.3135    3.1442 H   0  0  0  0  0  0  0  0  0  0  0  0
   -4.6071    3.0986    5.9818 H   0  0  0  0  0  0  0  0  0  0  0  0
   -6.4027    4.8007    5.7949 H   0  0  0  0  0  0  0  0  0  0  0  0
   -6.7130    6.0953    3.6572 H   0  0  0  0  0  0  0  0  0  0  0  0
   -2.9837    4.3030   -0.9603 H   0  0  0  0  0  0  0  0  0  0  0  0
   -2.1592    6.5867   -0.5589 H   0  0  0  0  0  0  0  0  0  0  0  0
   -3.7800    7.2528   -0.7879 H   0  0  0  0  0  0  0  0  0  0  0  0
   -2.5416    7.4915   -2.9147 H   0  0  0  0  0  0  0  0  0  0  0  0
   -2.0896    5.7872   -2.9040 H   0  0  0  0  0  0  0  0  0  0  0  0
   -5.8039    4.9007   -3.4296 H   0  0  0  0  0  0  0  0  0  0  0  0
  1  2  2  0  0  0  0
  2  3  1  0  0  0  0
  2 28  1  0  0  0  0
  3  4  1  0  0  0  0
  3 57  1  0  0  0  0
  3 58  1  0  0  0  0
  4  5  1  0  0  0  0
  4 27  1  0  0  0  0
  5  6  2  0  0  0  0
  5 59  1  0  0  0  0
  6  7  1  0  0  0  0
  6 22  1  0  0  0  0
  7  8  2  0  0  0  0
  7 20  1  0  0  0  0
  8  9  1  0  0  0  0
  8 17  1  0  0  0  0
  9 10  2  0  0  0  0
  9 15  1  0  0  0  0
 10 11  1  0  0  0  0
 10 60  1  0  0  0  0
 11 12  2  0  0  0  0
 11 61  1  0  0  0  0
 12 13  1  0  0  0  0
 12 14  1  0  0  0  0
 14 15  2  0  0  0  0
 14 62  1  0  0  0  0
 15 16  1  0  0  0  0
 17 18  2  0  0  0  0
 17 19  1  0  0  0  0
 19 20  1  0  0  0  0
 19 63  1  0  0  0  0
 20 21  2  0  0  0  0
 22 23  2  0  0  0  0
 22 27  1  0  0  0  0
 23 24  1  0  0  0  0
 23 64  1  0  0  0  0
 24 25  2  0  0  0  0
 24 65  1  0  0  0  0
 25 26  1  0  0  0  0
 25 66  1  0  0  0  0
 26 27  2  0  0  0  0
 26 67  1  0  0  0  0
 28 29  1  0  0  0  0
 28 68  1  0  0  0  0
 29 30  1  0  0  0  0
 29 69  1  0  0  0  0
 29 70  1  0  0  0  0
 30 31  1  0  0  0  0
 30 71  1  0  0  0  0
 30 72  1  0  0  0  0
 31 32  1  0  0  0  0
 32 33  1  0  0  0  0
 32 73  1  0  0  0  0
 32 74  1  0  0  0  0
 33 34  1  0  0  0  0
 33 75  1  0  0  0  0
 33 76  1  0  0  0  0
 34 35  1  0  0  0  0
 35 36  1  0  0  0  0
 35 77  1  0  0  0  0
 35 78  1  0  0  0  0
 36 37  1  0  0  0  0
 36 79  1  0  0  0  0
 36 80  1  0  0  0  0
 37 38  1  0  0  0  0
 37 81  1  0  0  0  0
 38 39  2  0  0  0  0
 38 43  1  0  0  0  0
 39 40  1  0  0  0  0
 39 82  1  0  0  0  0
 40 41  2  0  0  0  0
 40 83  1  0  0  0  0
 41 42  1  0  0  0  0
 41 84  1  0  0  0  0
 42 43  2  0  0  0  0
 42 55  1  0  0  0  0
 43 44  1  0  0  0  0
 44 45  2  0  0  0  0
 44 46  1  0  0  0  0
 46 47  1  0  0  0  0
 46 55  1  0  0  0  0
 47 48  1  0  0  0  0
 47 53  1  0  0  0  0
 47 85  1  0  0  0  0
 48 49  1  0  0  0  0
 48 86  1  0  0  0  0
 48 87  1  0  0  0  0
 49 50  1  0  0  0  0
 49 88  1  0  0  0  0
 49 89  1  0  0  0  0
 50 51  2  0  0  0  0
 50 52  1  0  0  0  0
 52 53  1  0  0  0  0
 52 90  1  0  0  0  0
 53 54  2  0  0  0  0
 55 56  2  0  0  0  0
M  END
$$$$
protac3895RUN2
  chem.cr 07102519423D
protac3895RUN2
 90 96  0  0  0  0  0  0  0  0999 V2000
   -2.9747   -5.4938   -3.1959 O   0  0  0  0  0  0  0  0  0  0  0  0
   -3.0007   -4.2747   -3.2471 C   0  0  0  0  0  0  0  0  0  0  0  0
   -3.0999   -3.5154   -4.5577 C   0  0  0  0  0  0  0  0  0  0  0  0
   -1.9242   -2.6821   -4.9134 N   0  0  0  0  0  0  0  0  0  0  0  0
   -2.1538   -1.3595   -5.3178 C   0  0  0  0  0  0  0  0  0  0  0  0
   -1.2846   -0.5126   -4.7256 C   0  0  0  0  0  0  0  0  0  0  0  0
   -1.3354    0.8512   -4.7150 C   0  0  0  0  0  0  0  0  0  0  0  0
   -2.0618    1.6266   -5.5524 C   0  0  0  0  0  0  0  0  0  0  0  0
   -2.7795    1.2005   -6.6593 C   0  0  0  0  0  0  0  0  0  0  0  0
   -4.1855    1.3014   -6.6779 C   0  0  0  0  0  0  0  0  0  0  0  0
   -4.9137    0.8741   -7.8045 C   0  0  0  0  0  0  0  0  0  0  0  0
   -4.2399    0.3591   -8.9234 C   0  0  0  0  0  0  0  0  0  0  0  0
   -5.1462   -0.1577  -10.3375 Cl  0  0  0  0  0  0  0  0  0  0  0  0
   -2.8398    0.2773   -8.9249 C   0  0  0  0  0  0  0  0  0  0  0  0
   -2.1091    0.6950   -7.7992 C   0  0  0  0  0  0  0  0  0  0  0  0
   -0.3474    0.5957   -7.8579 Cl  0  0  0  0  0  0  0  0  0  0  0  0
   -1.9263    2.9231   -5.2627 C   0  0  0  0  0  0  0  0  0  0  0  0
   -2.3495    3.9470   -5.7774 O   0  0  0  0  0  0  0  0  0  0  0  0
   -1.1047    3.0282   -4.1536 N   0  0  0  0  0  0  0  0  0  0  0  0
   -0.7314    1.7182   -3.8632 C   0  0  0  0  0  0  0  0  0  0  0  0
   -0.0422    1.5903   -2.8600 O   0  0  0  0  0  0  0  0  0  0  0  0
   -0.3609   -1.3321   -4.0651 C   0  0  0  0  0  0  0  0  0  0  0  0
    0.9378   -1.0654   -3.5818 C   0  0  0  0  0  0  0  0  0  0  0  0
    1.7264   -2.1309   -3.0933 C   0  0  0  0  0  0  0  0  0  0  0  0
    1.2597   -3.4625   -3.1581 C   0  0  0  0  0  0  0  0  0  0  0  0
    0.0106   -3.7421   -3.7386 C   0  0  0  0  0  0  0  0  0  0  0  0
   -0.7651   -2.6640   -4.1809 C   0  0  0  0  0  0  0  0  0  0  0  0
   -3.1217   -3.6127   -2.0152 N   0  0  0  0  0  0  0  0  0  0  0  0
   -3.1796   -2.1554   -1.7935 C   0  0  0  0  0  0  0  0  0  0  0  0
   -2.0987   -1.6895   -0.7981 C   0  0  0  0  0  0  0  0  0  0  0  0
   -2.5460   -0.4510   -0.2281 O   0  0  0  0  0  0  0  0  0  0  0  0
   -1.5829    0.2275    0.5970 C   0  0  0  0  0  0  0  0  0  0  0  0
   -2.3484    1.2084    1.5072 C   0  0  0  0  0  0  0  0  0  0  0  0
   -1.3879    1.9488    2.2769 O   0  0  0  0  0  0  0  0  0  0  0  0
   -1.9489    2.7410    3.3360 C   0  0  0  0  0  0  0  0  0  0  0  0
   -0.8264    3.5934    3.9635 C   0  0  0  0  0  0  0  0  0  0  0  0
    0.2705    2.7357    4.4413 N   0  0  0  0  0  0  0  0  0  0  0  0
    1.0697    2.9563    5.5625 C   0  0  0  0  0  0  0  0  0  0  0  0
    0.9767    4.1189    6.3662 C   0  0  0  0  0  0  0  0  0  0  0  0
    1.8095    4.2976    7.4999 C   0  0  0  0  0  0  0  0  0  0  0  0
    2.7615    3.3203    7.8507 C   0  0  0  0  0  0  0  0  0  0  0  0
    2.8548    2.1814    7.0468 C   0  0  0  0  0  0  0  0  0  0  0  0
    2.0330    2.0027    5.9340 C   0  0  0  0  0  0  0  0  0  0  0  0
    2.3925    0.8122    5.3430 C   0  0  0  0  0  0  0  0  0  0  0  0
    1.8787    0.2436    4.3846 O   0  0  0  0  0  0  0  0  0  0  0  0
    3.4321    0.2278    6.0809 N   0  0  0  0  0  0  0  0  0  0  0  0
    4.4260   -0.6954    5.4920 C   0  0  0  0  0  0  0  0  0  0  0  0
    4.5183   -1.9949    6.3196 C   0  0  0  0  0  0  0  0  0  0  0  0
    5.6469   -2.8962    5.7679 C   0  0  0  0  0  0  0  0  0  0  0  0
    6.9628   -2.1548    5.7021 C   0  0  0  0  0  0  0  0  0  0  0  0
    8.0476   -2.7094    5.7536 O   0  0  0  0  0  0  0  0  0  0  0  0
    6.9523   -0.8083    5.3285 N   0  0  0  0  0  0  0  0  0  0  0  0
    5.7869   -0.0279    5.2970 C   0  0  0  0  0  0  0  0  0  0  0  0
    5.9271    1.1191    4.8932 O   0  0  0  0  0  0  0  0  0  0  0  0
    3.7058    1.1022    7.1392 C   0  0  0  0  0  0  0  0  0  0  0  0
    4.4539    0.8049    8.0625 O   0  0  0  0  0  0  0  0  0  0  0  0
   -3.2457   -4.2483   -5.3618 H   0  0  0  0  0  0  0  0  0  0  0  0
   -3.9970   -2.8891   -4.5202 H   0  0  0  0  0  0  0  0  0  0  0  0
   -3.0462   -1.1471   -5.8975 H   0  0  0  0  0  0  0  0  0  0  0  0
   -4.7106    1.7175   -5.8204 H   0  0  0  0  0  0  0  0  0  0  0  0
   -5.9958    0.9585   -7.8198 H   0  0  0  0  0  0  0  0  0  0  0  0
   -2.3151   -0.0929   -9.8020 H   0  0  0  0  0  0  0  0  0  0  0  0
   -0.5477    3.8388   -3.9299 H   0  0  0  0  0  0  0  0  0  0  0  0
    1.3810   -0.0809   -3.6329 H   0  0  0  0  0  0  0  0  0  0  0  0
    2.7231   -1.9260   -2.7066 H   0  0  0  0  0  0  0  0  0  0  0  0
    1.8896   -4.2754   -2.8058 H   0  0  0  0  0  0  0  0  0  0  0  0
   -0.3285   -4.7660   -3.8654 H   0  0  0  0  0  0  0  0  0  0  0  0
   -3.1253   -4.2151   -1.2035 H   0  0  0  0  0  0  0  0  0  0  0  0
   -4.1687   -1.8998   -1.3927 H   0  0  0  0  0  0  0  0  0  0  0  0
   -3.0454   -1.6030   -2.7292 H   0  0  0  0  0  0  0  0  0  0  0  0
   -1.1375   -1.5757   -1.3176 H   0  0  0  0  0  0  0  0  0  0  0  0
   -1.9745   -2.4407   -0.0060 H   0  0  0  0  0  0  0  0  0  0  0  0
   -0.8592    0.7753   -0.0208 H   0  0  0  0  0  0  0  0  0  0  0  0
   -1.0345   -0.4817    1.2279 H   0  0  0  0  0  0  0  0  0  0  0  0
   -3.0165    0.6376    2.1666 H   0  0  0  0  0  0  0  0  0  0  0  0
   -2.9535    1.8893    0.8952 H   0  0  0  0  0  0  0  0  0  0  0  0
   -2.7351    3.4049    2.9489 H   0  0  0  0  0  0  0  0  0  0  0  0
   -2.3922    2.0939    4.1048 H   0  0  0  0  0  0  0  0  0  0  0  0
   -0.4477    4.2992    3.2140 H   0  0  0  0  0  0  0  0  0  0  0  0
   -1.2567    4.1724    4.7876 H   0  0  0  0  0  0  0  0  0  0  0  0
    0.4585    1.8885    3.9136 H   0  0  0  0  0  0  0  0  0  0  0  0
    0.2692    4.9022    6.1211 H   0  0  0  0  0  0  0  0  0  0  0  0
    1.7207    5.2009    8.1001 H   0  0  0  0  0  0  0  0  0  0  0  0
    3.4152    3.4509    8.7097 H   0  0  0  0  0  0  0  0  0  0  0  0
    4.0753   -0.9672    4.4867 H   0  0  0  0  0  0  0  0  0  0  0  0
    3.5536   -2.5209    6.3017 H   0  0  0  0  0  0  0  0  0  0  0  0
    4.7333   -1.7454    7.3676 H   0  0  0  0  0  0  0  0  0  0  0  0
    5.7623   -3.7859    6.4010 H   0  0  0  0  0  0  0  0  0  0  0  0
    5.3906   -3.2590    4.7643 H   0  0  0  0  0  0  0  0  0  0  0  0
    7.8339   -0.3494    5.1504 H   0  0  0  0  0  0  0  0  0  0  0  0
  1  2  2  0  0  0  0
  2  3  1  0  0  0  0
  2 28  1  0  0  0  0
  3  4  1  0  0  0  0
  3 57  1  0  0  0  0
  3 58  1  0  0  0  0
  4  5  1  0  0  0  0
  4 27  1  0  0  0  0
  5  6  2  0  0  0  0
  5 59  1  0  0  0  0
  6  7  1  0  0  0  0
  6 22  1  0  0  0  0
  7  8  2  0  0  0  0
  7 20  1  0  0  0  0
  8  9  1  0  0  0  0
  8 17  1  0  0  0  0
  9 10  2  0  0  0  0
  9 15  1  0  0  0  0
 10 11  1  0  0  0  0
 10 60  1  0  0  0  0
 11 12  2  0  0  0  0
 11 61  1  0  0  0  0
 12 13  1  0  0  0  0
 12 14  1  0  0  0  0
 14 15  2  0  0  0  0
 14 62  1  0  0  0  0
 15 16  1  0  0  0  0
 17 18  2  0  0  0  0
 17 19  1  0  0  0  0
 19 20  1  0  0  0  0
 19 63  1  0  0  0  0
 20 21  2  0  0  0  0
 22 23  2  0  0  0  0
 22 27  1  0  0  0  0
 23 24  1  0  0  0  0
 23 64  1  0  0  0  0
 24 25  2  0  0  0  0
 24 65  1  0  0  0  0
 25 26  1  0  0  0  0
 25 66  1  0  0  0  0
 26 27  2  0  0  0  0
 26 67  1  0  0  0  0
 28 29  1  0  0  0  0
 28 68  1  0  0  0  0
 29 30  1  0  0  0  0
 29 69  1  0  0  0  0
 29 70  1  0  0  0  0
 30 31  1  0  0  0  0
 30 71  1  0  0  0  0
 30 72  1  0  0  0  0
 31 32  1  0  0  0  0
 32 33  1  0  0  0  0
 32 73  1  0  0  0  0
 32 74  1  0  0  0  0
 33 34  1  0  0  0  0
 33 75  1  0  0  0  0
 33 76  1  0  0  0  0
 34 35  1  0  0  0  0
 35 36  1  0  0  0  0
 35 77  1  0  0  0  0
 35 78  1  0  0  0  0
 36 37  1  0  0  0  0
 36 79  1  0  0  0  0
 36 80  1  0  0  0  0
 37 38  1  0  0  0  0
 37 81  1  0  0  0  0
 38 39  2  0  0  0  0
 38 43  1  0  0  0  0
 39 40  1  0  0  0  0
 39 82  1  0  0  0  0
 40 41  2  0  0  0  0
 40 83  1  0  0  0  0
 41 42  1  0  0  0  0
 41 84  1  0  0  0  0
 42 43  2  0  0  0  0
 42 55  1  0  0  0  0
 43 44  1  0  0  0  0
 44 45  2  0  0  0  0
 44 46  1  0  0  0  0
 46 47  1  0  0  0  0
 46 55  1  0  0  0  0
 47 48  1  0  0  0  0
 47 53  1  0  0  0  0
 47 85  1  0  0  0  0
 48 49  1  0  0  0  0
 48 86  1  0  0  0  0
 48 87  1  0  0  0  0
 49 50  1  0  0  0  0
 49 88  1  0  0  0  0
 49 89  1  0  0  0  0
 50 51  2  0  0  0  0
 50 52  1  0  0  0  0
 52 53  1  0  0  0  0
 52 90  1  0  0  0  0
 53 54  2  0  0  0  0
 55 56  2  0  0  0  0
M  END
$$$$
protac3895RUN2
  chem.cr 07102519423D
protac3895RUN2
 90 96  0  0  0  0  0  0  0  0999 V2000
    1.0444    1.7904    1.3691 O   0  0  0  0  0  0  0  0  0  0  0  0
    1.3236    2.8064    0.7468 C   0  0  0  0  0  0  0  0  0  0  0  0
    2.5958    3.5918    0.9894 C   0  0  0  0  0  0  0  0  0  0  0  0
    3.4703    3.7028   -0.2007 N   0  0  0  0  0  0  0  0  0  0  0  0
    3.5842    2.5697   -1.0243 C   0  0  0  0  0  0  0  0  0  0  0  0
    3.4071    2.8892   -2.3275 C   0  0  0  0  0  0  0  0  0  0  0  0
    3.1652    2.0308   -3.3684 C   0  0  0  0  0  0  0  0  0  0  0  0
    3.2601    0.6773   -3.3355 C   0  0  0  0  0  0  0  0  0  0  0  0
    3.6996   -0.0934   -2.2762 C   0  0  0  0  0  0  0  0  0  0  0  0
    2.7659   -0.7169   -1.4236 C   0  0  0  0  0  0  0  0  0  0  0  0
    3.2036   -1.4829   -0.3289 C   0  0  0  0  0  0  0  0  0  0  0  0
    4.5772   -1.6379   -0.0876 C   0  0  0  0  0  0  0  0  0  0  0  0
    5.1282   -2.5989    1.2784 Cl  0  0  0  0  0  0  0  0  0  0  0  0
    5.5147   -1.0300   -0.9378 C   0  0  0  0  0  0  0  0  0  0  0  0
    5.0797   -0.2600   -2.0303 C   0  0  0  0  0  0  0  0  0  0  0  0
    6.2819    0.4826   -3.0821 Cl  0  0  0  0  0  0  0  0  0  0  0  0
    2.9065    0.1204   -4.4938 C   0  0  0  0  0  0  0  0  0  0  0  0
    2.8560   -1.0329   -4.8952 O   0  0  0  0  0  0  0  0  0  0  0  0
    2.5186    1.1342   -5.3458 N   0  0  0  0  0  0  0  0  0  0  0  0
    2.7103    2.3062   -4.6202 C   0  0  0  0  0  0  0  0  0  0  0  0
    2.3347    3.3184   -5.1903 O   0  0  0  0  0  0  0  0  0  0  0  0
    3.3997    4.2950   -2.3510 C   0  0  0  0  0  0  0  0  0  0  0  0
    3.6007    5.2233   -3.3957 C   0  0  0  0  0  0  0  0  0  0  0  0
    3.6240    6.6054   -3.1032 C   0  0  0  0  0  0  0  0  0  0  0  0
    3.5221    7.0663   -1.7736 C   0  0  0  0  0  0  0  0  0  0  0  0
    3.4380    6.1422   -0.7180 C   0  0  0  0  0  0  0  0  0  0  0  0
    3.3954    4.7794   -1.0399 C   0  0  0  0  0  0  0  0  0  0  0  0
    0.6140    3.1065   -0.4291 N   0  0  0  0  0  0  0  0  0  0  0  0
   -0.3677    2.1809   -1.0104 C   0  0  0  0  0  0  0  0  0  0  0  0
   -0.4799    2.3328   -2.5415 C   0  0  0  0  0  0  0  0  0  0  0  0
   -1.4907    1.4256   -3.0090 O   0  0  0  0  0  0  0  0  0  0  0  0
   -1.1198    0.0357   -3.0930 C   0  0  0  0  0  0  0  0  0  0  0  0
   -2.4219   -0.7831   -3.0965 C   0  0  0  0  0  0  0  0  0  0  0  0
   -3.0375   -0.6239   -1.8101 O   0  0  0  0  0  0  0  0  0  0  0  0
   -4.3693   -1.1410   -1.7073 C   0  0  0  0  0  0  0  0  0  0  0  0
   -4.9413   -0.6839   -0.3538 C   0  0  0  0  0  0  0  0  0  0  0  0
   -4.2612   -1.3432    0.7748 N   0  0  0  0  0  0  0  0  0  0  0  0
   -4.4458   -1.0160    2.1155 C   0  0  0  0  0  0  0  0  0  0  0  0
   -5.2517    0.0773    2.5259 C   0  0  0  0  0  0  0  0  0  0  0  0
   -5.3916    0.4169    3.8930 C   0  0  0  0  0  0  0  0  0  0  0  0
   -4.7259   -0.3272    4.8861 C   0  0  0  0  0  0  0  0  0  0  0  0
   -3.9439   -1.4117    4.4761 C   0  0  0  0  0  0  0  0  0  0  0  0
   -3.8117   -1.7549    3.1285 C   0  0  0  0  0  0  0  0  0  0  0  0
   -2.9913   -2.8606    3.0614 C   0  0  0  0  0  0  0  0  0  0  0  0
   -2.7114   -3.5366    2.0791 O   0  0  0  0  0  0  0  0  0  0  0  0
   -2.5758   -3.1930    4.3623 N   0  0  0  0  0  0  0  0  0  0  0  0
   -1.9553   -4.4604    4.8149 C   0  0  0  0  0  0  0  0  0  0  0  0
   -0.4793   -4.5958    4.3545 C   0  0  0  0  0  0  0  0  0  0  0  0
   -0.3220   -5.5160    3.1225 C   0  0  0  0  0  0  0  0  0  0  0  0
   -1.0212   -6.8361    3.3315 C   0  0  0  0  0  0  0  0  0  0  0  0
   -0.5885   -7.9077    2.9377 O   0  0  0  0  0  0  0  0  0  0  0  0
   -2.2543   -6.8397    3.9887 N   0  0  0  0  0  0  0  0  0  0  0  0
   -2.8317   -5.6741    4.5122 C   0  0  0  0  0  0  0  0  0  0  0  0
   -3.9532   -5.8103    4.9819 O   0  0  0  0  0  0  0  0  0  0  0  0
   -3.2009   -2.2896    5.2287 C   0  0  0  0  0  0  0  0  0  0  0  0
   -2.8593   -2.1703    6.4004 O   0  0  0  0  0  0  0  0  0  0  0  0
    2.3278    4.5930    1.3419 H   0  0  0  0  0  0  0  0  0  0  0  0
    3.1615    3.0991    1.7897 H   0  0  0  0  0  0  0  0  0  0  0  0
    3.5990    1.6023   -0.5347 H   0  0  0  0  0  0  0  0  0  0  0  0
    1.7029   -0.5994   -1.6077 H   0  0  0  0  0  0  0  0  0  0  0  0
    2.4786   -1.9581    0.3279 H   0  0  0  0  0  0  0  0  0  0  0  0
    6.5779   -1.1563   -0.7512 H   0  0  0  0  0  0  0  0  0  0  0  0
    2.5046    1.0736   -6.3515 H   0  0  0  0  0  0  0  0  0  0  0  0
    3.8006    4.9118   -4.4126 H   0  0  0  0  0  0  0  0  0  0  0  0
    3.7507    7.3229   -3.9108 H   0  0  0  0  0  0  0  0  0  0  0  0
    3.5664    8.1316   -1.5635 H   0  0  0  0  0  0  0  0  0  0  0  0
    3.4417    6.4774    0.3146 H   0  0  0  0  0  0  0  0  0  0  0  0
    0.9805    3.8506   -1.0149 H   0  0  0  0  0  0  0  0  0  0  0  0
   -1.3497    2.3620   -0.5540 H   0  0  0  0  0  0  0  0  0  0  0  0
   -0.0745    1.1541   -0.7640 H   0  0  0  0  0  0  0  0  0  0  0  0
    0.4832    2.1332   -3.0238 H   0  0  0  0  0  0  0  0  0  0  0  0
   -0.7686    3.3648   -2.7798 H   0  0  0  0  0  0  0  0  0  0  0  0
   -0.5036   -0.2881   -2.2472 H   0  0  0  0  0  0  0  0  0  0  0  0
   -0.5609   -0.1511   -4.0186 H   0  0  0  0  0  0  0  0  0  0  0  0
   -2.1983   -1.8398   -3.2865 H   0  0  0  0  0  0  0  0  0  0  0  0
   -3.0771   -0.4146   -3.8960 H   0  0  0  0  0  0  0  0  0  0  0  0
   -4.9970   -0.7338   -2.5112 H   0  0  0  0  0  0  0  0  0  0  0  0
   -4.3791   -2.2364   -1.7795 H   0  0  0  0  0  0  0  0  0  0  0  0
   -4.8226    0.4052   -0.2851 H   0  0  0  0  0  0  0  0  0  0  0  0
   -6.0146   -0.9092   -0.3162 H   0  0  0  0  0  0  0  0  0  0  0  0
   -3.5839   -2.0721    0.5732 H   0  0  0  0  0  0  0  0  0  0  0  0
   -5.7741    0.6814    1.7922 H   0  0  0  0  0  0  0  0  0  0  0  0
   -6.0129    1.2616    4.1805 H   0  0  0  0  0  0  0  0  0  0  0  0
   -4.8217   -0.0768    5.9393 H   0  0  0  0  0  0  0  0  0  0  0  0
   -1.9218   -4.4066    5.9116 H   0  0  0  0  0  0  0  0  0  0  0  0
    0.1019   -5.0279    5.1817 H   0  0  0  0  0  0  0  0  0  0  0  0
   -0.0516   -3.6049    4.1561 H   0  0  0  0  0  0  0  0  0  0  0  0
   -0.7303   -5.0386    2.2242 H   0  0  0  0  0  0  0  0  0  0  0  0
    0.7423   -5.6988    2.9230 H   0  0  0  0  0  0  0  0  0  0  0  0
   -2.7926   -7.6937    3.9966 H   0  0  0  0  0  0  0  0  0  0  0  0
  1  2  2  0  0  0  0
  2  3  1  0  0  0  0
  2 28  1  0  0  0  0
  3  4  1  0  0  0  0
  3 57  1  0  0  0  0
  3 58  1  0  0  0  0
  4  5  1  0  0  0  0
  4 27  1  0  0  0  0
  5  6  2  0  0  0  0
  5 59  1  0  0  0  0
  6  7  1  0  0  0  0
  6 22  1  0  0  0  0
  7  8  2  0  0  0  0
  7 20  1  0  0  0  0
  8  9  1  0  0  0  0
  8 17  1  0  0  0  0
  9 10  2  0  0  0  0
  9 15  1  0  0  0  0
 10 11  1  0  0  0  0
 10 60  1  0  0  0  0
 11 12  2  0  0  0  0
 11 61  1  0  0  0  0
 12 13  1  0  0  0  0
 12 14  1  0  0  0  0
 14 15  2  0  0  0  0
 14 62  1  0  0  0  0
 15 16  1  0  0  0  0
 17 18  2  0  0  0  0
 17 19  1  0  0  0  0
 19 20  1  0  0  0  0
 19 63  1  0  0  0  0
 20 21  2  0  0  0  0
 22 23  2  0  0  0  0
 22 27  1  0  0  0  0
 23 24  1  0  0  0  0
 23 64  1  0  0  0  0
 24 25  2  0  0  0  0
 24 65  1  0  0  0  0
 25 26  1  0  0  0  0
 25 66  1  0  0  0  0
 26 27  2  0  0  0  0
 26 67  1  0  0  0  0
 28 29  1  0  0  0  0
 28 68  1  0  0  0  0
 29 30  1  0  0  0  0
 29 69  1  0  0  0  0
 29 70  1  0  0  0  0
 30 31  1  0  0  0  0
 30 71  1  0  0  0  0
 30 72  1  0  0  0  0
 31 32  1  0  0  0  0
 32 33  1  0  0  0  0
 32 73  1  0  0  0  0
 32 74  1  0  0  0  0
 33 34  1  0  0  0  0
 33 75  1  0  0  0  0
 33 76  1  0  0  0  0
 34 35  1  0  0  0  0
 35 36  1  0  0  0  0
 35 77  1  0  0  0  0
 35 78  1  0  0  0  0
 36 37  1  0  0  0  0
 36 79  1  0  0  0  0
 36 80  1  0  0  0  0
 37 38  1  0  0  0  0
 37 81  1  0  0  0  0
 38 39  2  0  0  0  0
 38 43  1  0  0  0  0
 39 40  1  0  0  0  0
 39 82  1  0  0  0  0
 40 41  2  0  0  0  0
 40 83  1  0  0  0  0
 41 42  1  0  0  0  0
 41 84  1  0  0  0  0
 42 43  2  0  0  0  0
 42 55  1  0  0  0  0
 43 44  1  0  0  0  0
 44 45  2  0  0  0  0
 44 46  1  0  0  0  0
 46 47  1  0  0  0  0
 46 55  1  0  0  0  0
 47 48  1  0  0  0  0
 47 53  1  0  0  0  0
 47 85  1  0  0  0  0
 48 49  1  0  0  0  0
 48 86  1  0  0  0  0
 48 87  1  0  0  0  0
 49 50  1  0  0  0  0
 49 88  1  0  0  0  0
 49 89  1  0  0  0  0
 50 51  2  0  0  0  0
 50 52  1  0  0  0  0
 52 53  1  0  0  0  0
 52 90  1  0  0  0  0
 53 54  2  0  0  0  0
 55 56  2  0  0  0  0
M  END
$$$$
protac3895RUN2
  chem.cr 07102519423D
protac3895RUN2
 90 96  0  0  0  0  0  0  0  0999 V2000
    2.1469    4.1577   -0.5377 O   0  0  0  0  0  0  0  0  0  0  0  0
    1.7907    3.9793   -1.6939 C   0  0  0  0  0  0  0  0  0  0  0  0
    2.3892    4.7231   -2.8672 C   0  0  0  0  0  0  0  0  0  0  0  0
    2.5615    3.8916   -4.0716 N   0  0  0  0  0  0  0  0  0  0  0  0
    3.4993    2.8604   -4.1316 C   0  0  0  0  0  0  0  0  0  0  0  0
    3.8045    2.5612   -5.4155 C   0  0  0  0  0  0  0  0  0  0  0  0
    4.7890    1.7171   -5.8619 C   0  0  0  0  0  0  0  0  0  0  0  0
    5.5054    0.8494   -5.0975 C   0  0  0  0  0  0  0  0  0  0  0  0
    5.3450    0.6232   -3.7461 C   0  0  0  0  0  0  0  0  0  0  0  0
    4.2946   -0.1999   -3.2946 C   0  0  0  0  0  0  0  0  0  0  0  0
    4.0798   -0.3818   -1.9165 C   0  0  0  0  0  0  0  0  0  0  0  0
    4.9154    0.2562   -0.9860 C   0  0  0  0  0  0  0  0  0  0  0  0
    4.6344    0.0470    0.7380 Cl  0  0  0  0  0  0  0  0  0  0  0  0
    5.9770    1.0619   -1.4281 C   0  0  0  0  0  0  0  0  0  0  0  0
    6.1977    1.2419   -2.8032 C   0  0  0  0  0  0  0  0  0  0  0  0
    7.5198    2.2853   -3.3256 Cl  0  0  0  0  0  0  0  0  0  0  0  0
    6.4050    0.1733   -5.8140 C   0  0  0  0  0  0  0  0  0  0  0  0
    7.2136   -0.7047   -5.5428 O   0  0  0  0  0  0  0  0  0  0  0  0
    6.3287    0.6242   -7.1155 N   0  0  0  0  0  0  0  0  0  0  0  0
    5.3110    1.5730   -7.1093 C   0  0  0  0  0  0  0  0  0  0  0  0
    5.1552    2.1436   -8.1800 O   0  0  0  0  0  0  0  0  0  0  0  0
    2.9437    3.3691   -6.1892 C   0  0  0  0  0  0  0  0  0  0  0  0
    2.5582    3.3134   -7.5465 C   0  0  0  0  0  0  0  0  0  0  0  0
    1.6165    4.2411   -8.0428 C   0  0  0  0  0  0  0  0  0  0  0  0
    0.9935    5.1713   -7.1856 C   0  0  0  0  0  0  0  0  0  0  0  0
    1.2686    5.1461   -5.8075 C   0  0  0  0  0  0  0  0  0  0  0  0
    2.2297    4.2333   -5.3502 C   0  0  0  0  0  0  0  0  0  0  0  0
    0.7691    3.0518   -1.9718 N   0  0  0  0  0  0  0  0  0  0  0  0
    0.0029    2.3384   -0.9337 C   0  0  0  0  0  0  0  0  0  0  0  0
   -0.0297    0.8177   -1.1903 C   0  0  0  0  0  0  0  0  0  0  0  0
   -0.8891    0.1832   -0.2266 O   0  0  0  0  0  0  0  0  0  0  0  0
   -0.3817    0.1207    1.1168 C   0  0  0  0  0  0  0  0  0  0  0  0
   -1.3020   -0.7799    1.9648 C   0  0  0  0  0  0  0  0  0  0  0  0
   -2.4371   -0.0207    2.4106 O   0  0  0  0  0  0  0  0  0  0  0  0
   -3.6409   -0.1494    1.6359 C   0  0  0  0  0  0  0  0  0  0  0  0
   -4.7938    0.3984    2.5059 C   0  0  0  0  0  0  0  0  0  0  0  0
   -4.7266   -0.2443    3.8270 N   0  0  0  0  0  0  0  0  0  0  0  0
   -5.6335   -1.1996    4.2582 C   0  0  0  0  0  0  0  0  0  0  0  0
   -7.0300   -0.9908    4.2034 C   0  0  0  0  0  0  0  0  0  0  0  0
   -7.9313   -1.9723    4.6867 C   0  0  0  0  0  0  0  0  0  0  0  0
   -7.4533   -3.1841    5.2292 C   0  0  0  0  0  0  0  0  0  0  0  0
   -6.0671   -3.3795    5.2693 C   0  0  0  0  0  0  0  0  0  0  0  0
   -5.1808   -2.4110    4.7968 C   0  0  0  0  0  0  0  0  0  0  0  0
   -3.9001   -2.8941    4.9518 C   0  0  0  0  0  0  0  0  0  0  0  0
   -2.8439   -2.2998    4.7773 O   0  0  0  0  0  0  0  0  0  0  0  0
   -3.9724   -4.1556    5.5611 N   0  0  0  0  0  0  0  0  0  0  0  0
   -2.8793   -5.1426    5.7129 C   0  0  0  0  0  0  0  0  0  0  0  0
   -2.1510   -4.9722    7.0662 C   0  0  0  0  0  0  0  0  0  0  0  0
   -1.0907   -3.8519    6.9888 C   0  0  0  0  0  0  0  0  0  0  0  0
   -0.1484   -4.0511    5.8232 C   0  0  0  0  0  0  0  0  0  0  0  0
    1.0333   -3.7419    5.8534 O   0  0  0  0  0  0  0  0  0  0  0  0
   -0.5969   -4.7381    4.6879 N   0  0  0  0  0  0  0  0  0  0  0  0
   -1.9251   -5.1612    4.5250 C   0  0  0  0  0  0  0  0  0  0  0  0
   -2.1818   -5.7307    3.4734 O   0  0  0  0  0  0  0  0  0  0  0  0
   -5.3301   -4.4466    5.7296 C   0  0  0  0  0  0  0  0  0  0  0  0
   -5.7208   -5.4493    6.3190 O   0  0  0  0  0  0  0  0  0  0  0  0
    1.7602    5.5879   -3.0982 H   0  0  0  0  0  0  0  0  0  0  0  0
    3.3723    5.1069   -2.5702 H   0  0  0  0  0  0  0  0  0  0  0  0
    3.9302    2.5171   -3.1958 H   0  0  0  0  0  0  0  0  0  0  0  0
    3.6406   -0.6840   -4.0153 H   0  0  0  0  0  0  0  0  0  0  0  0
    3.2674   -1.0141   -1.5689 H   0  0  0  0  0  0  0  0  0  0  0  0
    6.6241    1.5522   -0.7056 H   0  0  0  0  0  0  0  0  0  0  0  0
    6.6797    0.1443   -7.9294 H   0  0  0  0  0  0  0  0  0  0  0  0
    2.9142    2.5503   -8.2212 H   0  0  0  0  0  0  0  0  0  0  0  0
    1.3458    4.2190   -9.0944 H   0  0  0  0  0  0  0  0  0  0  0  0
    0.2597    5.8682   -7.5822 H   0  0  0  0  0  0  0  0  0  0  0  0
    0.7331    5.7971   -5.1227 H   0  0  0  0  0  0  0  0  0  0  0  0
    0.5634    2.8698   -2.9483 H   0  0  0  0  0  0  0  0  0  0  0  0
   -1.0249    2.7257   -0.9211 H   0  0  0  0  0  0  0  0  0  0  0  0
    0.4436    2.5350    0.0525 H   0  0  0  0  0  0  0  0  0  0  0  0
    0.9886    0.4097   -1.1310 H   0  0  0  0  0  0  0  0  0  0  0  0
   -0.4095    0.6251   -2.2023 H   0  0  0  0  0  0  0  0  0  0  0  0
   -0.3310    1.1154    1.5770 H   0  0  0  0  0  0  0  0  0  0  0  0
    0.6262   -0.3142    1.1246 H   0  0  0  0  0  0  0  0  0  0  0  0
   -0.7382   -1.1205    2.8414 H   0  0  0  0  0  0  0  0  0  0  0  0
   -1.5991   -1.6733    1.4016 H   0  0  0  0  0  0  0  0  0  0  0  0
   -3.5665    0.3995    0.6879 H   0  0  0  0  0  0  0  0  0  0  0  0
   -3.8419   -1.2055    1.4117 H   0  0  0  0  0  0  0  0  0  0  0  0
   -4.6749    1.4840    2.6213 H   0  0  0  0  0  0  0  0  0  0  0  0
   -5.7545    0.1976    2.0145 H   0  0  0  0  0  0  0  0  0  0  0  0
   -3.7765   -0.4191    4.1426 H   0  0  0  0  0  0  0  0  0  0  0  0
   -7.4172   -0.0570    3.8075 H   0  0  0  0  0  0  0  0  0  0  0  0
   -9.0009   -1.7864    4.6440 H   0  0  0  0  0  0  0  0  0  0  0  0
   -8.1332   -3.9459    5.6030 H   0  0  0  0  0  0  0  0  0  0  0  0
   -3.3516   -6.1338    5.7276 H   0  0  0  0  0  0  0  0  0  0  0  0
   -1.6497   -5.9152    7.3219 H   0  0  0  0  0  0  0  0  0  0  0  0
   -2.8784   -4.7698    7.8639 H   0  0  0  0  0  0  0  0  0  0  0  0
   -1.5774   -2.8757    6.8881 H   0  0  0  0  0  0  0  0  0  0  0  0
   -0.5132   -3.8132    7.9207 H   0  0  0  0  0  0  0  0  0  0  0  0
    0.0485   -4.8788    3.9254 H   0  0  0  0  0  0  0  0  0  0  0  0
  1  2  2  0  0  0  0
  2  3  1  0  0  0  0
  2 28  1  0  0  0  0
  3  4  1  0  0  0  0
  3 57  1  0  0  0  0
  3 58  1  0  0  0  0
  4  5  1  0  0  0  0
  4 27  1  0  0  0  0
  5  6  2  0  0  0  0
  5 59  1  0  0  0  0
  6  7  1  0  0  0  0
  6 22  1  0  0  0  0
  7  8  2  0  0  0  0
  7 20  1  0  0  0  0
  8  9  1  0  0  0  0
  8 17  1  0  0  0  0
  9 10  2  0  0  0  0
  9 15  1  0  0  0  0
 10 11  1  0  0  0  0
 10 60  1  0  0  0  0
 11 12  2  0  0  0  0
 11 61  1  0  0  0  0
 12 13  1  0  0  0  0
 12 14  1  0  0  0  0
 14 15  2  0  0  0  0
 14 62  1  0  0  0  0
 15 16  1  0  0  0  0
 17 18  2  0  0  0  0
 17 19  1  0  0  0  0
 19 20  1  0  0  0  0
 19 63  1  0  0  0  0
 20 21  2  0  0  0  0
 22 23  2  0  0  0  0
 22 27  1  0  0  0  0
 23 24  1  0  0  0  0
 23 64  1  0  0  0  0
 24 25  2  0  0  0  0
 24 65  1  0  0  0  0
 25 26  1  0  0  0  0
 25 66  1  0  0  0  0
 26 27  2  0  0  0  0
 26 67  1  0  0  0  0
 28 29  1  0  0  0  0
 28 68  1  0  0  0  0
 29 30  1  0  0  0  0
 29 69  1  0  0  0  0
 29 70  1  0  0  0  0
 30 31  1  0  0  0  0
 30 71  1  0  0  0  0
 30 72  1  0  0  0  0
 31 32  1  0  0  0  0
 32 33  1  0  0  0  0
 32 73  1  0  0  0  0
 32 74  1  0  0  0  0
 33 34  1  0  0  0  0
 33 75  1  0  0  0  0
 33 76  1  0  0  0  0
 34 35  1  0  0  0  0
 35 36  1  0  0  0  0
 35 77  1  0  0  0  0
 35 78  1  0  0  0  0
 36 37  1  0  0  0  0
 36 79  1  0  0  0  0
 36 80  1  0  0  0  0
 37 38  1  0  0  0  0
 37 81  1  0  0  0  0
 38 39  2  0  0  0  0
 38 43  1  0  0  0  0
 39 40  1  0  0  0  0
 39 82  1  0  0  0  0
 40 41  2  0  0  0  0
 40 83  1  0  0  0  0
 41 42  1  0  0  0  0
 41 84  1  0  0  0  0
 42 43  2  0  0  0  0
 42 55  1  0  0  0  0
 43 44  1  0  0  0  0
 44 45  2  0  0  0  0
 44 46  1  0  0  0  0
 46 47  1  0  0  0  0
 46 55  1  0  0  0  0
 47 48  1  0  0  0  0
 47 53  1  0  0  0  0
 47 85  1  0  0  0  0
 48 49  1  0  0  0  0
 48 86  1  0  0  0  0
 48 87  1  0  0  0  0
 49 50  1  0  0  0  0
 49 88  1  0  0  0  0
 49 89  1  0  0  0  0
 50 51  2  0  0  0  0
 50 52  1  0  0  0  0
 52 53  1  0  0  0  0
 52 90  1  0  0  0  0
 53 54  2  0  0  0  0
 55 56  2  0  0  0  0
M  END
$$$$
protac3895RUN2
  chem.cr 07102519423D
protac3895RUN2
 90 96  0  0  0  0  0  0  0  0999 V2000
    0.3784    2.2502   -2.1128 O   0  0  0  0  0  0  0  0  0  0  0  0
    0.7842    1.2941   -1.4676 C   0  0  0  0  0  0  0  0  0  0  0  0
    1.9068    0.3865   -1.9168 C   0  0  0  0  0  0  0  0  0  0  0  0
    3.0327    1.1074   -2.5427 N   0  0  0  0  0  0  0  0  0  0  0  0
    4.0064    1.7721   -1.7951 C   0  0  0  0  0  0  0  0  0  0  0  0
    5.1018    2.0365   -2.5490 C   0  0  0  0  0  0  0  0  0  0  0  0
    6.1803    2.8235   -2.2121 C   0  0  0  0  0  0  0  0  0  0  0  0
    6.4328    3.3638   -0.9943 C   0  0  0  0  0  0  0  0  0  0  0  0
    5.6644    3.2331    0.1422 C   0  0  0  0  0  0  0  0  0  0  0  0
    5.9190    2.1836    1.0447 C   0  0  0  0  0  0  0  0  0  0  0  0
    5.1279    2.0339    2.1961 C   0  0  0  0  0  0  0  0  0  0  0  0
    4.0743    2.9291    2.4423 C   0  0  0  0  0  0  0  0  0  0  0  0
    3.0703    2.7338    3.8724 Cl  0  0  0  0  0  0  0  0  0  0  0  0
    3.8251    3.9886    1.5558 C   0  0  0  0  0  0  0  0  0  0  0  0
    4.6227    4.1483    0.4113 C   0  0  0  0  0  0  0  0  0  0  0  0
    4.2699    5.4715   -0.7005 Cl  0  0  0  0  0  0  0  0  0  0  0  0
    7.5323    4.1184   -0.9913 C   0  0  0  0  0  0  0  0  0  0  0  0
    8.0825    4.7967   -0.1389 O   0  0  0  0  0  0  0  0  0  0  0  0
    8.0774    4.0790   -2.2588 N   0  0  0  0  0  0  0  0  0  0  0  0
    7.1803    3.3078   -2.9987 C   0  0  0  0  0  0  0  0  0  0  0  0
    7.4102    3.2969   -4.1969 O   0  0  0  0  0  0  0  0  0  0  0  0
    4.8528    1.3886   -3.7807 C   0  0  0  0  0  0  0  0  0  0  0  0
    5.6929    1.0297   -4.8594 C   0  0  0  0  0  0  0  0  0  0  0  0
    5.1495    0.3470   -5.9703 C   0  0  0  0  0  0  0  0  0  0  0  0
    3.7991   -0.0574   -5.9839 C   0  0  0  0  0  0  0  0  0  0  0  0
    2.9918    0.1718   -4.8574 C   0  0  0  0  0  0  0  0  0  0  0  0
    3.5529    0.8690   -3.7807 C   0  0  0  0  0  0  0  0  0  0  0  0
    0.1339    0.9451   -0.2736 N   0  0  0  0  0  0  0  0  0  0  0  0
   -0.9508    1.7309    0.3301 C   0  0  0  0  0  0  0  0  0  0  0  0
   -2.2741    0.9420    0.3478 C   0  0  0  0  0  0  0  0  0  0  0  0
   -3.0686    1.3710    1.4658 O   0  0  0  0  0  0  0  0  0  0  0  0
   -3.4259    2.7657    1.5075 C   0  0  0  0  0  0  0  0  0  0  0  0
   -4.5537    2.9527    2.5453 C   0  0  0  0  0  0  0  0  0  0  0  0
   -5.8454    2.7077    1.9391 O   0  0  0  0  0  0  0  0  0  0  0  0
   -6.1329    1.3888    1.4335 C   0  0  0  0  0  0  0  0  0  0  0  0
   -6.2268    0.3783    2.6025 C   0  0  0  0  0  0  0  0  0  0  0  0
   -5.4096   -0.8159    2.3148 N   0  0  0  0  0  0  0  0  0  0  0  0
   -5.8714   -2.1061    2.0573 C   0  0  0  0  0  0  0  0  0  0  0  0
   -7.2242   -2.4977    2.2289 C   0  0  0  0  0  0  0  0  0  0  0  0
   -7.6460   -3.8195    1.9483 C   0  0  0  0  0  0  0  0  0  0  0  0
   -6.7333   -4.7763    1.4656 C   0  0  0  0  0  0  0  0  0  0  0  0
   -5.4014   -4.3838    1.2999 C   0  0  0  0  0  0  0  0  0  0  0  0
   -4.9747   -3.0885    1.5977 C   0  0  0  0  0  0  0  0  0  0  0  0
   -3.6189   -3.0198    1.3526 C   0  0  0  0  0  0  0  0  0  0  0  0
   -2.8288   -2.2548    1.8945 O   0  0  0  0  0  0  0  0  0  0  0  0
   -3.1943   -4.2781    0.8922 N   0  0  0  0  0  0  0  0  0  0  0  0
   -1.9378   -4.5790    0.1636 C   0  0  0  0  0  0  0  0  0  0  0  0
   -1.1123   -5.6446    0.9204 C   0  0  0  0  0  0  0  0  0  0  0  0
   -0.4732   -5.0015    2.1719 C   0  0  0  0  0  0  0  0  0  0  0  0
    0.3504   -3.7875    1.8092 C   0  0  0  0  0  0  0  0  0  0  0  0
    1.3517   -3.4407    2.4183 O   0  0  0  0  0  0  0  0  0  0  0  0
    0.0491   -3.0807    0.6396 N   0  0  0  0  0  0  0  0  0  0  0  0
   -1.0865   -3.3483   -0.1414 C   0  0  0  0  0  0  0  0  0  0  0  0
   -1.2085   -2.6716   -1.1547 O   0  0  0  0  0  0  0  0  0  0  0  0
   -4.3191   -5.1089    0.8680 C   0  0  0  0  0  0  0  0  0  0  0  0
   -4.3080   -6.2159    0.3421 O   0  0  0  0  0  0  0  0  0  0  0  0
    2.3003   -0.1731   -1.0614 H   0  0  0  0  0  0  0  0  0  0  0  0
    1.5075   -0.3452   -2.6278 H   0  0  0  0  0  0  0  0  0  0  0  0
    3.7361    2.0782   -0.7910 H   0  0  0  0  0  0  0  0  0  0  0  0
    6.7327    1.4891    0.8519 H   0  0  0  0  0  0  0  0  0  0  0  0
    5.3272    1.2276    2.8962 H   0  0  0  0  0  0  0  0  0  0  0  0
    3.0208    4.6935    1.7542 H   0  0  0  0  0  0  0  0  0  0  0  0
    8.6079    4.8377   -2.6522 H   0  0  0  0  0  0  0  0  0  0  0  0
    6.7541    1.2167   -4.8606 H   0  0  0  0  0  0  0  0  0  0  0  0
    5.7875    0.1117   -6.8167 H   0  0  0  0  0  0  0  0  0  0  0  0
    3.3913   -0.5851   -6.8435 H   0  0  0  0  0  0  0  0  0  0  0  0
    1.9678   -0.1878   -4.8257 H   0  0  0  0  0  0  0  0  0  0  0  0
    0.4224    0.1024    0.2016 H   0  0  0  0  0  0  0  0  0  0  0  0
   -1.0981    2.6659   -0.2286 H   0  0  0  0  0  0  0  0  0  0  0  0
   -0.6607    1.9920    1.3567 H   0  0  0  0  0  0  0  0  0  0  0  0
   -2.0647   -0.1315    0.4476 H   0  0  0  0  0  0  0  0  0  0  0  0
   -2.8087    1.0870   -0.5999 H   0  0  0  0  0  0  0  0  0  0  0  0
   -3.7635    3.1246    0.5261 H   0  0  0  0  0  0  0  0  0  0  0  0
   -2.5573    3.3639    1.8172 H   0  0  0  0  0  0  0  0  0  0  0  0
   -4.5238    3.9882    2.9103 H   0  0  0  0  0  0  0  0  0  0  0  0
   -4.3713    2.2994    3.4080 H   0  0  0  0  0  0  0  0  0  0  0  0
   -7.0911    1.4012    0.8979 H   0  0  0  0  0  0  0  0  0  0  0  0
   -5.3801    1.0689    0.7039 H   0  0  0  0  0  0  0  0  0  0  0  0
   -5.8768    0.8317    3.5373 H   0  0  0  0  0  0  0  0  0  0  0  0
   -7.2814    0.1311    2.7638 H   0  0  0  0  0  0  0  0  0  0  0  0
   -4.4140   -0.6687    2.1697 H   0  0  0  0  0  0  0  0  0  0  0  0
   -7.9704   -1.7989    2.5885 H   0  0  0  0  0  0  0  0  0  0  0  0
   -8.6855   -4.0974    2.1074 H   0  0  0  0  0  0  0  0  0  0  0  0
   -7.0463   -5.7925    1.2392 H   0  0  0  0  0  0  0  0  0  0  0  0
   -2.2306   -5.0066   -0.8046 H   0  0  0  0  0  0  0  0  0  0  0  0
   -0.3224   -6.0281    0.2584 H   0  0  0  0  0  0  0  0  0  0  0  0
   -1.7444   -6.5019    1.1943 H   0  0  0  0  0  0  0  0  0  0  0  0
   -1.2580   -4.6958    2.8757 H   0  0  0  0  0  0  0  0  0  0  0  0
    0.1580   -5.7297    2.6999 H   0  0  0  0  0  0  0  0  0  0  0  0
    0.6638   -2.3327    0.3655 H   0  0  0  0  0  0  0  0  0  0  0  0
  1  2  2  0  0  0  0
  2  3  1  0  0  0  0
  2 28  1  0  0  0  0
  3  4  1  0  0  0  0
  3 57  1  0  0  0  0
  3 58  1  0  0  0  0
  4  5  1  0  0  0  0
  4 27  1  0  0  0  0
  5  6  2  0  0  0  0
  5 59  1  0  0  0  0
  6  7  1  0  0  0  0
  6 22  1  0  0  0  0
  7  8  2  0  0  0  0
  7 20  1  0  0  0  0
  8  9  1  0  0  0  0
  8 17  1  0  0  0  0
  9 10  2  0  0  0  0
  9 15  1  0  0  0  0
 10 11  1  0  0  0  0
 10 60  1  0  0  0  0
 11 12  2  0  0  0  0
 11 61  1  0  0  0  0
 12 13  1  0  0  0  0
 12 14  1  0  0  0  0
 14 15  2  0  0  0  0
 14 62  1  0  0  0  0
 15 16  1  0  0  0  0
 17 18  2  0  0  0  0
 17 19  1  0  0  0  0
 19 20  1  0  0  0  0
 19 63  1  0  0  0  0
 20 21  2  0  0  0  0
 22 23  2  0  0  0  0
 22 27  1  0  0  0  0
 23 24  1  0  0  0  0
 23 64  1  0  0  0  0
 24 25  2  0  0  0  0
 24 65  1  0  0  0  0
 25 26  1  0  0  0  0
 25 66  1  0  0  0  0
 26 27  2  0  0  0  0
 26 67  1  0  0  0  0
 28 29  1  0  0  0  0
 28 68  1  0  0  0  0
 29 30  1  0  0  0  0
 29 69  1  0  0  0  0
 29 70  1  0  0  0  0
 30 31  1  0  0  0  0
 30 71  1  0  0  0  0
 30 72  1  0  0  0  0
 31 32  1  0  0  0  0
 32 33  1  0  0  0  0
 32 73  1  0  0  0  0
 32 74  1  0  0  0  0
 33 34  1  0  0  0  0
 33 75  1  0  0  0  0
 33 76  1  0  0  0  0
 34 35  1  0  0  0  0
 35 36  1  0  0  0  0
 35 77  1  0  0  0  0
 35 78  1  0  0  0  0
 36 37  1  0  0  0  0
 36 79  1  0  0  0  0
 36 80  1  0  0  0  0
 37 38  1  0  0  0  0
 37 81  1  0  0  0  0
 38 39  2  0  0  0  0
 38 43  1  0  0  0  0
 39 40  1  0  0  0  0
 39 82  1  0  0  0  0
 40 41  2  0  0  0  0
 40 83  1  0  0  0  0
 41 42  1  0  0  0  0
 41 84  1  0  0  0  0
 42 43  2  0  0  0  0
 42 55  1  0  0  0  0
 43 44  1  0  0  0  0
 44 45  2  0  0  0  0
 44 46  1  0  0  0  0
 46 47  1  0  0  0  0
 46 55  1  0  0  0  0
 47 48  1  0  0  0  0
 47 53  1  0  0  0  0
 47 85  1  0  0  0  0
 48 49  1  0  0  0  0
 48 86  1  0  0  0  0
 48 87  1  0  0  0  0
 49 50  1  0  0  0  0
 49 88  1  0  0  0  0
 49 89  1  0  0  0  0
 50 51  2  0  0  0  0
 50 52  1  0  0  0  0
 52 53  1  0  0  0  0
 52 90  1  0  0  0  0
 53 54  2  0  0  0  0
 55 56  2  0  0  0  0
M  END
$$$$
protac3895RUN2
  chem.cr 07102519423D
protac3895RUN2
 90 96  0  0  0  0  0  0  0  0999 V2000
   -2.3164   -2.7209    0.3419 O   0  0  0  0  0  0  0  0  0  0  0  0
   -1.2869   -3.2628   -0.0369 C   0  0  0  0  0  0  0  0  0  0  0  0
   -1.2291   -4.7086   -0.4692 C   0  0  0  0  0  0  0  0  0  0  0  0
   -0.3113   -5.5307    0.3404 N   0  0  0  0  0  0  0  0  0  0  0  0
    1.0335   -5.7452    0.0322 C   0  0  0  0  0  0  0  0  0  0  0  0
    1.6957   -6.2442    1.1030 C   0  0  0  0  0  0  0  0  0  0  0  0
    3.0509   -6.4286    1.2311 C   0  0  0  0  0  0  0  0  0  0  0  0
    3.9686   -6.3442    0.2342 C   0  0  0  0  0  0  0  0  0  0  0  0
    3.7230   -6.1097   -1.1047 C   0  0  0  0  0  0  0  0  0  0  0  0
    4.0324   -4.8478   -1.6487 C   0  0  0  0  0  0  0  0  0  0  0  0
    3.7882   -4.5802   -3.0053 C   0  0  0  0  0  0  0  0  0  0  0  0
    3.2380   -5.5761   -3.8275 C   0  0  0  0  0  0  0  0  0  0  0  0
    2.9400   -5.2422   -5.5283 Cl  0  0  0  0  0  0  0  0  0  0  0  0
    2.9415   -6.8431   -3.2988 C   0  0  0  0  0  0  0  0  0  0  0  0
    3.1850   -7.1137   -1.9416 C   0  0  0  0  0  0  0  0  0  0  0  0
    2.8078   -8.7169   -1.3088 Cl  0  0  0  0  0  0  0  0  0  0  0  0
    5.2112   -6.5434    0.6759 C   0  0  0  0  0  0  0  0  0  0  0  0
    6.3057   -6.5729    0.1309 O   0  0  0  0  0  0  0  0  0  0  0  0
    5.1460   -6.7367    2.0393 N   0  0  0  0  0  0  0  0  0  0  0  0
    3.7892   -6.6773    2.3479 C   0  0  0  0  0  0  0  0  0  0  0  0
    3.5458   -6.7594    3.5423 O   0  0  0  0  0  0  0  0  0  0  0  0
    0.6982   -6.4524    2.0813 C   0  0  0  0  0  0  0  0  0  0  0  0
    0.6759   -7.2122    3.2728 C   0  0  0  0  0  0  0  0  0  0  0  0
   -0.5123   -7.2818    4.0338 C   0  0  0  0  0  0  0  0  0  0  0  0
   -1.6975   -6.6608    3.5886 C   0  0  0  0  0  0  0  0  0  0  0  0
   -1.7205   -6.0129    2.3424 C   0  0  0  0  0  0  0  0  0  0  0  0
   -0.5224   -5.9478    1.6196 C   0  0  0  0  0  0  0  0  0  0  0  0
   -0.1511   -2.4817   -0.3095 N   0  0  0  0  0  0  0  0  0  0  0  0
   -0.0290   -1.0559    0.0440 C   0  0  0  0  0  0  0  0  0  0  0  0
    0.3821   -0.2054   -1.1691 C   0  0  0  0  0  0  0  0  0  0  0  0
    0.6546    1.1189   -0.6949 O   0  0  0  0  0  0  0  0  0  0  0  0
    0.9078    2.0809   -1.7291 C   0  0  0  0  0  0  0  0  0  0  0  0
    1.1833    3.4475   -1.0735 C   0  0  0  0  0  0  0  0  0  0  0  0
    2.5700    3.4966   -0.6918 O   0  0  0  0  0  0  0  0  0  0  0  0
    3.1191    4.7944   -0.3869 C   0  0  0  0  0  0  0  0  0  0  0  0
    2.5420    5.3335    0.9433 C   0  0  0  0  0  0  0  0  0  0  0  0
    1.2411    5.9948    0.7402 N   0  0  0  0  0  0  0  0  0  0  0  0
    0.0833    5.6137    1.4055 C   0  0  0  0  0  0  0  0  0  0  0  0
    0.0952    5.1061    2.7261 C   0  0  0  0  0  0  0  0  0  0  0  0
   -1.0969    4.6692    3.3517 C   0  0  0  0  0  0  0  0  0  0  0  0
   -2.3256    4.7217    2.6641 C   0  0  0  0  0  0  0  0  0  0  0  0
   -2.3258    5.2339    1.3617 C   0  0  0  0  0  0  0  0  0  0  0  0
   -1.1550    5.6829    0.7535 C   0  0  0  0  0  0  0  0  0  0  0  0
   -1.4768    6.1148   -0.5125 C   0  0  0  0  0  0  0  0  0  0  0  0
   -0.7762    6.7414   -1.2998 O   0  0  0  0  0  0  0  0  0  0  0  0
   -2.8552    5.9624   -0.6994 N   0  0  0  0  0  0  0  0  0  0  0  0
   -3.6212    6.5552   -1.8188 C   0  0  0  0  0  0  0  0  0  0  0  0
   -4.1199    7.9768   -1.4681 C   0  0  0  0  0  0  0  0  0  0  0  0
   -5.3782    7.9144   -0.5742 C   0  0  0  0  0  0  0  0  0  0  0  0
   -6.4463    7.0064   -1.1468 C   0  0  0  0  0  0  0  0  0  0  0  0
   -7.6405    7.1723   -0.9533 O   0  0  0  0  0  0  0  0  0  0  0  0
   -6.0780    5.9611   -2.0038 N   0  0  0  0  0  0  0  0  0  0  0  0
   -4.7450    5.6575   -2.3231 C   0  0  0  0  0  0  0  0  0  0  0  0
   -4.5786    4.7916   -3.1703 O   0  0  0  0  0  0  0  0  0  0  0  0
   -3.3642    5.3897    0.4754 C   0  0  0  0  0  0  0  0  0  0  0  0
   -4.5206    5.0071    0.5997 O   0  0  0  0  0  0  0  0  0  0  0  0
   -2.2384   -5.1317   -0.3833 H   0  0  0  0  0  0  0  0  0  0  0  0
   -0.9398   -4.7670   -1.5251 H   0  0  0  0  0  0  0  0  0  0  0  0
    1.3932   -5.4045   -0.9312 H   0  0  0  0  0  0  0  0  0  0  0  0
    4.4680   -4.0801   -1.0151 H   0  0  0  0  0  0  0  0  0  0  0  0
    4.0377   -3.6086   -3.4231 H   0  0  0  0  0  0  0  0  0  0  0  0
    2.5334   -7.6176   -3.9433 H   0  0  0  0  0  0  0  0  0  0  0  0
    5.8581   -7.1691    2.6070 H   0  0  0  0  0  0  0  0  0  0  0  0
    1.5195   -7.7992    3.6018 H   0  0  0  0  0  0  0  0  0  0  0  0
   -0.5208   -7.8458    4.9632 H   0  0  0  0  0  0  0  0  0  0  0  0
   -2.6062   -6.7320    4.1816 H   0  0  0  0  0  0  0  0  0  0  0  0
   -2.6437   -5.5986    1.9478 H   0  0  0  0  0  0  0  0  0  0  0  0
    0.6716   -2.9567   -0.6536 H   0  0  0  0  0  0  0  0  0  0  0  0
    0.7228   -0.9468    0.8373 H   0  0  0  0  0  0  0  0  0  0  0  0
   -0.9824   -0.6746    0.4370 H   0  0  0  0  0  0  0  0  0  0  0  0
   -0.4370   -0.2008   -1.9006 H   0  0  0  0  0  0  0  0  0  0  0  0
    1.2754   -0.6317   -1.6427 H   0  0  0  0  0  0  0  0  0  0  0  0
    0.0311    2.1693   -2.3843 H   0  0  0  0  0  0  0  0  0  0  0  0
    1.7702    1.7876   -2.3410 H   0  0  0  0  0  0  0  0  0  0  0  0
    0.5251    3.5649   -0.2043 H   0  0  0  0  0  0  0  0  0  0  0  0
    0.9547    4.2417   -1.7959 H   0  0  0  0  0  0  0  0  0  0  0  0
    4.2067    4.6940   -0.2715 H   0  0  0  0  0  0  0  0  0  0  0  0
    2.9394    5.5043   -1.2049 H   0  0  0  0  0  0  0  0  0  0  0  0
    2.4614    4.4945    1.6463 H   0  0  0  0  0  0  0  0  0  0  0  0
    3.2464    6.0606    1.3684 H   0  0  0  0  0  0  0  0  0  0  0  0
    1.0872    6.4469   -0.1557 H   0  0  0  0  0  0  0  0  0  0  0  0
    1.0276    5.0498    3.2787 H   0  0  0  0  0  0  0  0  0  0  0  0
   -1.0634    4.2811    4.3664 H   0  0  0  0  0  0  0  0  0  0  0  0
   -3.2479    4.3756    3.1240 H   0  0  0  0  0  0  0  0  0  0  0  0
   -2.9192    6.6511   -2.6583 H   0  0  0  0  0  0  0  0  0  0  0  0
   -4.3707    8.5098   -2.3954 H   0  0  0  0  0  0  0  0  0  0  0  0
   -3.3227    8.5502   -0.9736 H   0  0  0  0  0  0  0  0  0  0  0  0
   -5.1142    7.5621    0.4303 H   0  0  0  0  0  0  0  0  0  0  0  0
   -5.7917    8.9216   -0.4435 H   0  0  0  0  0  0  0  0  0  0  0  0
   -6.8048    5.3692   -2.3761 H   0  0  0  0  0  0  0  0  0  0  0  0
  1  2  2  0  0  0  0
  2  3  1  0  0  0  0
  2 28  1  0  0  0  0
  3  4  1  0  0  0  0
  3 57  1  0  0  0  0
  3 58  1  0  0  0  0
  4  5  1  0  0  0  0
  4 27  1  0  0  0  0
  5  6  2  0  0  0  0
  5 59  1  0  0  0  0
  6  7  1  0  0  0  0
  6 22  1  0  0  0  0
  7  8  2  0  0  0  0
  7 20  1  0  0  0  0
  8  9  1  0  0  0  0
  8 17  1  0  0  0  0
  9 10  2  0  0  0  0
  9 15  1  0  0  0  0
 10 11  1  0  0  0  0
 10 60  1  0  0  0  0
 11 12  2  0  0  0  0
 11 61  1  0  0  0  0
 12 13  1  0  0  0  0
 12 14  1  0  0  0  0
 14 15  2  0  0  0  0
 14 62  1  0  0  0  0
 15 16  1  0  0  0  0
 17 18  2  0  0  0  0
 17 19  1  0  0  0  0
 19 20  1  0  0  0  0
 19 63  1  0  0  0  0
 20 21  2  0  0  0  0
 22 23  2  0  0  0  0
 22 27  1  0  0  0  0
 23 24  1  0  0  0  0
 23 64  1  0  0  0  0
 24 25  2  0  0  0  0
 24 65  1  0  0  0  0
 25 26  1  0  0  0  0
 25 66  1  0  0  0  0
 26 27  2  0  0  0  0
 26 67  1  0  0  0  0
 28 29  1  0  0  0  0
 28 68  1  0  0  0  0
 29 30  1  0  0  0  0
 29 69  1  0  0  0  0
 29 70  1  0  0  0  0
 30 31  1  0  0  0  0
 30 71  1  0  0  0  0
 30 72  1  0  0  0  0
 31 32  1  0  0  0  0
 32 33  1  0  0  0  0
 32 73  1  0  0  0  0
 32 74  1  0  0  0  0
 33 34  1  0  0  0  0
 33 75  1  0  0  0  0
 33 76  1  0  0  0  0
 34 35  1  0  0  0  0
 35 36  1  0  0  0  0
 35 77  1  0  0  0  0
 35 78  1  0  0  0  0
 36 37  1  0  0  0  0
 36 79  1  0  0  0  0
 36 80  1  0  0  0  0
 37 38  1  0  0  0  0
 37 81  1  0  0  0  0
 38 39  2  0  0  0  0
 38 43  1  0  0  0  0
 39 40  1  0  0  0  0
 39 82  1  0  0  0  0
 40 41  2  0  0  0  0
 40 83  1  0  0  0  0
 41 42  1  0  0  0  0
 41 84  1  0  0  0  0
 42 43  2  0  0  0  0
 42 55  1  0  0  0  0
 43 44  1  0  0  0  0
 44 45  2  0  0  0  0
 44 46  1  0  0  0  0
 46 47  1  0  0  0  0
 46 55  1  0  0  0  0
 47 48  1  0  0  0  0
 47 53  1  0  0  0  0
 47 85  1  0  0  0  0
 48 49  1  0  0  0  0
 48 86  1  0  0  0  0
 48 87  1  0  0  0  0
 49 50  1  0  0  0  0
 49 88  1  0  0  0  0
 49 89  1  0  0  0  0
 50 51  2  0  0  0  0
 50 52  1  0  0  0  0
 52 53  1  0  0  0  0
 52 90  1  0  0  0  0
 53 54  2  0  0  0  0
 55 56  2  0  0  0  0
M  END
$$$$
protac3895RUN2
  chem.cr 07102519423D
protac3895RUN2
 90 96  0  0  0  0  0  0  0  0999 V2000
    2.2039    0.5933   -4.1149 O   0  0  0  0  0  0  0  0  0  0  0  0
    2.5925   -0.4088   -3.5307 C   0  0  0  0  0  0  0  0  0  0  0  0
    3.0382   -1.6734   -4.2308 C   0  0  0  0  0  0  0  0  0  0  0  0
    2.4634   -2.9053   -3.6463 N   0  0  0  0  0  0  0  0  0  0  0  0
    3.0953   -3.5065   -2.5466 C   0  0  0  0  0  0  0  0  0  0  0  0
    2.1896   -3.9214   -1.6277 C   0  0  0  0  0  0  0  0  0  0  0  0
    2.4345   -4.3665   -0.3555 C   0  0  0  0  0  0  0  0  0  0  0  0
    3.6410   -4.7194    0.1520 C   0  0  0  0  0  0  0  0  0  0  0  0
    4.8415   -4.7752   -0.5294 C   0  0  0  0  0  0  0  0  0  0  0  0
    5.8383   -3.8216   -0.2456 C   0  0  0  0  0  0  0  0  0  0  0  0
    7.0672   -3.8581   -0.9258 C   0  0  0  0  0  0  0  0  0  0  0  0
    7.3079   -4.8537   -1.8860 C   0  0  0  0  0  0  0  0  0  0  0  0
    8.8536   -4.9081   -2.7227 Cl  0  0  0  0  0  0  0  0  0  0  0  0
    6.3261   -5.8166   -2.1670 C   0  0  0  0  0  0  0  0  0  0  0  0
    5.0959   -5.7816   -1.4899 C   0  0  0  0  0  0  0  0  0  0  0  0
    3.8898   -7.0144   -1.8618 Cl  0  0  0  0  0  0  0  0  0  0  0  0
    3.5597   -5.0818    1.4318 C   0  0  0  0  0  0  0  0  0  0  0  0
    4.3776   -5.4917    2.2446 O   0  0  0  0  0  0  0  0  0  0  0  0
    2.2483   -4.9317    1.8329 N   0  0  0  0  0  0  0  0  0  0  0  0
    1.5723   -4.5095    0.6902 C   0  0  0  0  0  0  0  0  0  0  0  0
    0.3938   -4.2478    0.8737 O   0  0  0  0  0  0  0  0  0  0  0  0
    0.9382   -3.7141   -2.2325 C   0  0  0  0  0  0  0  0  0  0  0  0
   -0.3483   -4.2198   -1.9410 C   0  0  0  0  0  0  0  0  0  0  0  0
   -1.4301   -3.8948   -2.7872 C   0  0  0  0  0  0  0  0  0  0  0  0
   -1.2317   -3.1280   -3.9545 C   0  0  0  0  0  0  0  0  0  0  0  0
    0.0657   -2.7207   -4.3126 C   0  0  0  0  0  0  0  0  0  0  0  0
    1.1169   -3.0510   -3.4490 C   0  0  0  0  0  0  0  0  0  0  0  0
    2.6112   -0.4297   -2.1288 N   0  0  0  0  0  0  0  0  0  0  0  0
    1.6218    0.2902   -1.3228 C   0  0  0  0  0  0  0  0  0  0  0  0
    1.2632   -0.5339   -0.0772 C   0  0  0  0  0  0  0  0  0  0  0  0
    0.1772    0.1273    0.5699 O   0  0  0  0  0  0  0  0  0  0  0  0
   -0.2084   -0.4384    1.8289 C   0  0  0  0  0  0  0  0  0  0  0  0
   -1.6386    0.0418    2.1109 C   0  0  0  0  0  0  0  0  0  0  0  0
   -2.5137   -0.7424    1.2799 O   0  0  0  0  0  0  0  0  0  0  0  0
   -3.8245   -0.2073    1.0660 C   0  0  0  0  0  0  0  0  0  0  0  0
   -3.7176    0.8681   -0.0345 C   0  0  0  0  0  0  0  0  0  0  0  0
   -4.9969    1.5729   -0.2209 N   0  0  0  0  0  0  0  0  0  0  0  0
   -5.0435    2.9583   -0.3333 C   0  0  0  0  0  0  0  0  0  0  0  0
   -5.6871    3.5361   -1.4503 C   0  0  0  0  0  0  0  0  0  0  0  0
   -5.6650    4.9341   -1.6685 C   0  0  0  0  0  0  0  0  0  0  0  0
   -5.0026    5.7879   -0.7661 C   0  0  0  0  0  0  0  0  0  0  0  0
   -4.3971    5.2124    0.3559 C   0  0  0  0  0  0  0  0  0  0  0  0
   -4.4277    3.8348    0.5827 C   0  0  0  0  0  0  0  0  0  0  0  0
   -3.7753    3.5934    1.7754 C   0  0  0  0  0  0  0  0  0  0  0  0
   -3.9449    2.6531    2.5416 O   0  0  0  0  0  0  0  0  0  0  0  0
   -3.3253    4.8132    2.2888 N   0  0  0  0  0  0  0  0  0  0  0  0
   -2.2713    4.9237    3.3188 C   0  0  0  0  0  0  0  0  0  0  0  0
   -2.6715    5.9166    4.4319 C   0  0  0  0  0  0  0  0  0  0  0  0
   -1.5275    6.0329    5.4617 C   0  0  0  0  0  0  0  0  0  0  0  0
   -0.2100    6.3710    4.7993 C   0  0  0  0  0  0  0  0  0  0  0  0
    0.7169    6.9024    5.3887 O   0  0  0  0  0  0  0  0  0  0  0  0
    0.0717    5.8248    3.5414 N   0  0  0  0  0  0  0  0  0  0  0  0
   -0.9078    5.2495    2.7178 C   0  0  0  0  0  0  0  0  0  0  0  0
   -0.4986    4.7645    1.6719 O   0  0  0  0  0  0  0  0  0  0  0  0
   -3.7017    5.8077    1.3806 C   0  0  0  0  0  0  0  0  0  0  0  0
   -3.3737    6.9839    1.4939 O   0  0  0  0  0  0  0  0  0  0  0  0
    2.7324   -1.6150   -5.2819 H   0  0  0  0  0  0  0  0  0  0  0  0
    4.1312   -1.7274   -4.2101 H   0  0  0  0  0  0  0  0  0  0  0  0
    4.1783   -3.4485   -2.4907 H   0  0  0  0  0  0  0  0  0  0  0  0
    5.6590   -3.0578    0.5080 H   0  0  0  0  0  0  0  0  0  0  0  0
    7.8375   -3.1247   -0.7002 H   0  0  0  0  0  0  0  0  0  0  0  0
    6.5180   -6.5957   -2.9008 H   0  0  0  0  0  0  0  0  0  0  0  0
    1.8174   -5.4190    2.6034 H   0  0  0  0  0  0  0  0  0  0  0  0
   -0.5341   -4.8989   -1.1218 H   0  0  0  0  0  0  0  0  0  0  0  0
   -2.4248   -4.2606   -2.5458 H   0  0  0  0  0  0  0  0  0  0  0  0
   -2.0746   -2.8960   -4.6007 H   0  0  0  0  0  0  0  0  0  0  0  0
    0.2468   -2.1902   -5.2420 H   0  0  0  0  0  0  0  0  0  0  0  0
    3.0087   -1.2567   -1.7041 H   0  0  0  0  0  0  0  0  0  0  0  0
    0.7158    0.4706   -1.9189 H   0  0  0  0  0  0  0  0  0  0  0  0
    2.0276    1.2645   -1.0211 H   0  0  0  0  0  0  0  0  0  0  0  0
    2.1339   -0.6116    0.5866 H   0  0  0  0  0  0  0  0  0  0  0  0
    0.9604   -1.5462   -0.3787 H   0  0  0  0  0  0  0  0  0  0  0  0
    0.4678   -0.0942    2.6209 H   0  0  0  0  0  0  0  0  0  0  0  0
   -0.1948   -1.5366    1.8023 H   0  0  0  0  0  0  0  0  0  0  0  0
   -1.7069    1.1158    1.8934 H   0  0  0  0  0  0  0  0  0  0  0  0
   -1.8854   -0.1091    3.1692 H   0  0  0  0  0  0  0  0  0  0  0  0
   -4.5015   -1.0026    0.7293 H   0  0  0  0  0  0  0  0  0  0  0  0
   -4.2287    0.2177    1.9942 H   0  0  0  0  0  0  0  0  0  0  0  0
   -2.9250    1.5852    0.2128 H   0  0  0  0  0  0  0  0  0  0  0  0
   -3.4188    0.3811   -0.9726 H   0  0  0  0  0  0  0  0  0  0  0  0
   -5.7117    1.0681   -0.7278 H   0  0  0  0  0  0  0  0  0  0  0  0
   -6.1818    2.8967   -2.1757 H   0  0  0  0  0  0  0  0  0  0  0  0
   -6.1474    5.3534   -2.5478 H   0  0  0  0  0  0  0  0  0  0  0  0
   -4.9626    6.8616   -0.9264 H   0  0  0  0  0  0  0  0  0  0  0  0
   -2.1663    3.9338    3.7821 H   0  0  0  0  0  0  0  0  0  0  0  0
   -3.6012    5.5853    4.9123 H   0  0  0  0  0  0  0  0  0  0  0  0
   -2.8681    6.9056    3.9968 H   0  0  0  0  0  0  0  0  0  0  0  0
   -1.7672    6.8054    6.2045 H   0  0  0  0  0  0  0  0  0  0  0  0
   -1.4112    5.0904    6.0108 H   0  0  0  0  0  0  0  0  0  0  0  0
    1.0017    5.9383    3.1661 H   0  0  0  0  0  0  0  0  0  0  0  0
  1  2  2  0  0  0  0
  2  3  1  0  0  0  0
  2 28  1  0  0  0  0
  3  4  1  0  0  0  0
  3 57  1  0  0  0  0
  3 58  1  0  0  0  0
  4  5  1  0  0  0  0
  4 27  1  0  0  0  0
  5  6  2  0  0  0  0
  5 59  1  0  0  0  0
  6  7  1  0  0  0  0
  6 22  1  0  0  0  0
  7  8  2  0  0  0  0
  7 20  1  0  0  0  0
  8  9  1  0  0  0  0
  8 17  1  0  0  0  0
  9 10  2  0  0  0  0
  9 15  1  0  0  0  0
 10 11  1  0  0  0  0
 10 60  1  0  0  0  0
 11 12  2  0  0  0  0
 11 61  1  0  0  0  0
 12 13  1  0  0  0  0
 12 14  1  0  0  0  0
 14 15  2  0  0  0  0
 14 62  1  0  0  0  0
 15 16  1  0  0  0  0
 17 18  2  0  0  0  0
 17 19  1  0  0  0  0
 19 20  1  0  0  0  0
 19 63  1  0  0  0  0
 20 21  2  0  0  0  0
 22 23  2  0  0  0  0
 22 27  1  0  0  0  0
 23 24  1  0  0  0  0
 23 64  1  0  0  0  0
 24 25  2  0  0  0  0
 24 65  1  0  0  0  0
 25 26  1  0  0  0  0
 25 66  1  0  0  0  0
 26 27  2  0  0  0  0
 26 67  1  0  0  0  0
 28 29  1  0  0  0  0
 28 68  1  0  0  0  0
 29 30  1  0  0  0  0
 29 69  1  0  0  0  0
 29 70  1  0  0  0  0
 30 31  1  0  0  0  0
 30 71  1  0  0  0  0
 30 72  1  0  0  0  0
 31 32  1  0  0  0  0
 32 33  1  0  0  0  0
 32 73  1  0  0  0  0
 32 74  1  0  0  0  0
 33 34  1  0  0  0  0
 33 75  1  0  0  0  0
 33 76  1  0  0  0  0
 34 35  1  0  0  0  0
 35 36  1  0  0  0  0
 35 77  1  0  0  0  0
 35 78  1  0  0  0  0
 36 37  1  0  0  0  0
 36 79  1  0  0  0  0
 36 80  1  0  0  0  0
 37 38  1  0  0  0  0
 37 81  1  0  0  0  0
 38 39  2  0  0  0  0
 38 43  1  0  0  0  0
 39 40  1  0  0  0  0
 39 82  1  0  0  0  0
 40 41  2  0  0  0  0
 40 83  1  0  0  0  0
 41 42  1  0  0  0  0
 41 84  1  0  0  0  0
 42 43  2  0  0  0  0
 42 55  1  0  0  0  0
 43 44  1  0  0  0  0
 44 45  2  0  0  0  0
 44 46  1  0  0  0  0
 46 47  1  0  0  0  0
 46 55  1  0  0  0  0
 47 48  1  0  0  0  0
 47 53  1  0  0  0  0
 47 85  1  0  0  0  0
 48 49  1  0  0  0  0
 48 86  1  0  0  0  0
 48 87  1  0  0  0  0
 49 50  1  0  0  0  0
 49 88  1  0  0  0  0
 49 89  1  0  0  0  0
 50 51  2  0  0  0  0
 50 52  1  0  0  0  0
 52 53  1  0  0  0  0
 52 90  1  0  0  0  0
 53 54  2  0  0  0  0
 55 56  2  0  0  0  0
M  END
$$$$
protac3895RUN2
  chem.cr 07102519423D
protac3895RUN2
 90 96  0  0  0  0  0  0  0  0999 V2000
    0.2494    1.7678   -1.2376 O   0  0  0  0  0  0  0  0  0  0  0  0
    1.3308    1.3025   -0.9203 C   0  0  0  0  0  0  0  0  0  0  0  0
    2.1475    1.8142    0.2502 C   0  0  0  0  0  0  0  0  0  0  0  0
    3.2363    2.7583   -0.0923 N   0  0  0  0  0  0  0  0  0  0  0  0
    3.6613    3.0437   -1.3990 C   0  0  0  0  0  0  0  0  0  0  0  0
    4.8656    3.6596   -1.3855 C   0  0  0  0  0  0  0  0  0  0  0  0
    5.5203    4.2246   -2.4492 C   0  0  0  0  0  0  0  0  0  0  0  0
    5.2099    4.0805   -3.7621 C   0  0  0  0  0  0  0  0  0  0  0  0
    4.2118    3.2891   -4.3027 C   0  0  0  0  0  0  0  0  0  0  0  0
    3.0529    3.8974   -4.8219 C   0  0  0  0  0  0  0  0  0  0  0  0
    2.0376    3.1203   -5.4041 C   0  0  0  0  0  0  0  0  0  0  0  0
    2.1803    1.7255   -5.4843 C   0  0  0  0  0  0  0  0  0  0  0  0
    0.9223    0.7517   -6.2347 Cl  0  0  0  0  0  0  0  0  0  0  0  0
    3.3366    1.1078   -4.9788 C   0  0  0  0  0  0  0  0  0  0  0  0
    4.3504    1.8837   -4.3867 C   0  0  0  0  0  0  0  0  0  0  0  0
    5.7873    1.0746   -3.7648 Cl  0  0  0  0  0  0  0  0  0  0  0  0
    6.0094    4.8082   -4.5474 C   0  0  0  0  0  0  0  0  0  0  0  0
    6.0695    4.9871   -5.7533 O   0  0  0  0  0  0  0  0  0  0  0  0
    6.9276    5.4537   -3.7428 N   0  0  0  0  0  0  0  0  0  0  0  0
    6.5625    5.0980   -2.4457 C   0  0  0  0  0  0  0  0  0  0  0  0
    7.1601    5.7147   -1.5748 O   0  0  0  0  0  0  0  0  0  0  0  0
    5.2654    3.6572   -0.0309 C   0  0  0  0  0  0  0  0  0  0  0  0
    6.5165    3.8719    0.5884 C   0  0  0  0  0  0  0  0  0  0  0  0
    6.6340    3.7343    1.9899 C   0  0  0  0  0  0  0  0  0  0  0  0
    5.5361    3.3147    2.7719 C   0  0  0  0  0  0  0  0  0  0  0  0
    4.3222    2.9787    2.1461 C   0  0  0  0  0  0  0  0  0  0  0  0
    4.2321    3.1407    0.7569 C   0  0  0  0  0  0  0  0  0  0  0  0
    1.7062    0.1165   -1.5703 N   0  0  0  0  0  0  0  0  0  0  0  0
    3.0653   -0.4539   -1.5654 C   0  0  0  0  0  0  0  0  0  0  0  0
    3.1306   -1.8398   -0.8896 C   0  0  0  0  0  0  0  0  0  0  0  0
    2.5975   -1.7259    0.4390 O   0  0  0  0  0  0  0  0  0  0  0  0
    2.8673   -2.8461    1.2959 C   0  0  0  0  0  0  0  0  0  0  0  0
    1.9085   -2.7751    2.5065 C   0  0  0  0  0  0  0  0  0  0  0  0
    0.7429   -3.5827    2.2498 O   0  0  0  0  0  0  0  0  0  0  0  0
   -0.1147   -3.1482    1.1843 C   0  0  0  0  0  0  0  0  0  0  0  0
   -1.2877   -4.1404    1.1011 C   0  0  0  0  0  0  0  0  0  0  0  0
   -2.5662   -3.4703    1.3792 N   0  0  0  0  0  0  0  0  0  0  0  0
   -3.3524   -3.6300    2.5138 C   0  0  0  0  0  0  0  0  0  0  0  0
   -2.9036   -4.2480    3.7075 C   0  0  0  0  0  0  0  0  0  0  0  0
   -3.7631   -4.3713    4.8305 C   0  0  0  0  0  0  0  0  0  0  0  0
   -5.0885   -3.8883    4.7782 C   0  0  0  0  0  0  0  0  0  0  0  0
   -5.5196   -3.2800    3.5929 C   0  0  0  0  0  0  0  0  0  0  0  0
   -4.6672   -3.1518    2.4945 C   0  0  0  0  0  0  0  0  0  0  0  0
   -5.3575   -2.5048    1.5006 C   0  0  0  0  0  0  0  0  0  0  0  0
   -4.9402   -2.0720    0.4295 O   0  0  0  0  0  0  0  0  0  0  0  0
   -6.6338   -2.1987    1.9747 N   0  0  0  0  0  0  0  0  0  0  0  0
   -7.7565   -1.7689    1.1192 C   0  0  0  0  0  0  0  0  0  0  0  0
   -8.0865   -0.2878    1.3893 C   0  0  0  0  0  0  0  0  0  0  0  0
   -9.2666    0.1498    0.4950 C   0  0  0  0  0  0  0  0  0  0  0  0
  -10.4602   -0.7667    0.6473 C   0  0  0  0  0  0  0  0  0  0  0  0
  -11.6048   -0.4220    0.3928 O   0  0  0  0  0  0  0  0  0  0  0  0
  -10.2426   -2.1260    0.9045 N   0  0  0  0  0  0  0  0  0  0  0  0
   -8.9903   -2.6576    1.2491 C   0  0  0  0  0  0  0  0  0  0  0  0
   -8.9457   -3.8777    1.3570 O   0  0  0  0  0  0  0  0  0  0  0  0
   -6.7369   -2.7149    3.2752 C   0  0  0  0  0  0  0  0  0  0  0  0
   -7.6070   -2.3337    4.0514 O   0  0  0  0  0  0  0  0  0  0  0  0
    1.4639    2.3295    0.9369 H   0  0  0  0  0  0  0  0  0  0  0  0
    2.5701    0.9668    0.8011 H   0  0  0  0  0  0  0  0  0  0  0  0
    2.9717    2.8676   -2.2183 H   0  0  0  0  0  0  0  0  0  0  0  0
    2.9431    4.9776   -4.7731 H   0  0  0  0  0  0  0  0  0  0  0  0
    1.1488    3.6013   -5.8008 H   0  0  0  0  0  0  0  0  0  0  0  0
    3.4538    0.0310   -5.0542 H   0  0  0  0  0  0  0  0  0  0  0  0
    7.3664    6.3304   -3.9758 H   0  0  0  0  0  0  0  0  0  0  0  0
    7.4107    4.0916    0.0273 H   0  0  0  0  0  0  0  0  0  0  0  0
    7.5910    3.9352    2.4654 H   0  0  0  0  0  0  0  0  0  0  0  0
    5.6425    3.2129    3.8498 H   0  0  0  0  0  0  0  0  0  0  0  0
    3.4892    2.5858    2.7229 H   0  0  0  0  0  0  0  0  0  0  0  0
    1.0057   -0.3016   -2.1691 H   0  0  0  0  0  0  0  0  0  0  0  0
    3.7736    0.2234   -1.0724 H   0  0  0  0  0  0  0  0  0  0  0  0
    3.3996   -0.5545   -2.6059 H   0  0  0  0  0  0  0  0  0  0  0  0
    4.1779   -2.1763   -0.8636 H   0  0  0  0  0  0  0  0  0  0  0  0
    2.5485   -2.5653   -1.4755 H   0  0  0  0  0  0  0  0  0  0  0  0
    3.9048   -2.8015    1.6494 H   0  0  0  0  0  0  0  0  0  0  0  0
    2.7252   -3.8011    0.7718 H   0  0  0  0  0  0  0  0  0  0  0  0
    1.6320   -1.7327    2.7133 H   0  0  0  0  0  0  0  0  0  0  0  0
    2.4270   -3.1620    3.3926 H   0  0  0  0  0  0  0  0  0  0  0  0
   -0.4813   -2.1297    1.3671 H   0  0  0  0  0  0  0  0  0  0  0  0
    0.4190   -3.1508    0.2253 H   0  0  0  0  0  0  0  0  0  0  0  0
   -1.3244   -4.5581    0.0878 H   0  0  0  0  0  0  0  0  0  0  0  0
   -1.1232   -4.9795    1.7866 H   0  0  0  0  0  0  0  0  0  0  0  0
   -2.9989   -2.9473    0.6244 H   0  0  0  0  0  0  0  0  0  0  0  0
   -1.8876   -4.6224    3.7826 H   0  0  0  0  0  0  0  0  0  0  0  0
   -3.4011   -4.8420    5.7429 H   0  0  0  0  0  0  0  0  0  0  0  0
   -5.7548   -3.9832    5.6332 H   0  0  0  0  0  0  0  0  0  0  0  0
   -7.4338   -1.8595    0.0720 H   0  0  0  0  0  0  0  0  0  0  0  0
   -7.2012    0.3383    1.2092 H   0  0  0  0  0  0  0  0  0  0  0  0
   -8.3611   -0.1653    2.4455 H   0  0  0  0  0  0  0  0  0  0  0  0
   -9.5647    1.1773    0.7401 H   0  0  0  0  0  0  0  0  0  0  0  0
   -8.9595    0.1645   -0.5568 H   0  0  0  0  0  0  0  0  0  0  0  0
  -11.0373   -2.7458    0.8993 H   0  0  0  0  0  0  0  0  0  0  0  0
  1  2  2  0  0  0  0
  2  3  1  0  0  0  0
  2 28  1  0  0  0  0
  3  4  1  0  0  0  0
  3 57  1  0  0  0  0
  3 58  1  0  0  0  0
  4  5  1  0  0  0  0
  4 27  1  0  0  0  0
  5  6  2  0  0  0  0
  5 59  1  0  0  0  0
  6  7  1  0  0  0  0
  6 22  1  0  0  0  0
  7  8  2  0  0  0  0
  7 20  1  0  0  0  0
  8  9  1  0  0  0  0
  8 17  1  0  0  0  0
  9 10  2  0  0  0  0
  9 15  1  0  0  0  0
 10 11  1  0  0  0  0
 10 60  1  0  0  0  0
 11 12  2  0  0  0  0
 11 61  1  0  0  0  0
 12 13  1  0  0  0  0
 12 14  1  0  0  0  0
 14 15  2  0  0  0  0
 14 62  1  0  0  0  0
 15 16  1  0  0  0  0
 17 18  2  0  0  0  0
 17 19  1  0  0  0  0
 19 20  1  0  0  0  0
 19 63  1  0  0  0  0
 20 21  2  0  0  0  0
 22 23  2  0  0  0  0
 22 27  1  0  0  0  0
 23 24  1  0  0  0  0
 23 64  1  0  0  0  0
 24 25  2  0  0  0  0
 24 65  1  0  0  0  0
 25 26  1  0  0  0  0
 25 66  1  0  0  0  0
 26 27  2  0  0  0  0
 26 67  1  0  0  0  0
 28 29  1  0  0  0  0
 28 68  1  0  0  0  0
 29 30  1  0  0  0  0
 29 69  1  0  0  0  0
 29 70  1  0  0  0  0
 30 31  1  0  0  0  0
 30 71  1  0  0  0  0
 30 72  1  0  0  0  0
 31 32  1  0  0  0  0
 32 33  1  0  0  0  0
 32 73  1  0  0  0  0
 32 74  1  0  0  0  0
 33 34  1  0  0  0  0
 33 75  1  0  0  0  0
 33 76  1  0  0  0  0
 34 35  1  0  0  0  0
 35 36  1  0  0  0  0
 35 77  1  0  0  0  0
 35 78  1  0  0  0  0
 36 37  1  0  0  0  0
 36 79  1  0  0  0  0
 36 80  1  0  0  0  0
 37 38  1  0  0  0  0
 37 81  1  0  0  0  0
 38 39  2  0  0  0  0
 38 43  1  0  0  0  0
 39 40  1  0  0  0  0
 39 82  1  0  0  0  0
 40 41  2  0  0  0  0
 40 83  1  0  0  0  0
 41 42  1  0  0  0  0
 41 84  1  0  0  0  0
 42 43  2  0  0  0  0
 42 55  1  0  0  0  0
 43 44  1  0  0  0  0
 44 45  2  0  0  0  0
 44 46  1  0  0  0  0
 46 47  1  0  0  0  0
 46 55  1  0  0  0  0
 47 48  1  0  0  0  0
 47 53  1  0  0  0  0
 47 85  1  0  0  0  0
 48 49  1  0  0  0  0
 48 86  1  0  0  0  0
 48 87  1  0  0  0  0
 49 50  1  0  0  0  0
 49 88  1  0  0  0  0
 49 89  1  0  0  0  0
 50 51  2  0  0  0  0
 50 52  1  0  0  0  0
 52 53  1  0  0  0  0
 52 90  1  0  0  0  0
 53 54  2  0  0  0  0
 55 56  2  0  0  0  0
M  END
$$$$
protac3895RUN2
  chem.cr 07102519423D
protac3895RUN2
 90 96  0  0  0  0  0  0  0  0999 V2000
    0.9181    0.6656   -2.3877 O   0  0  0  0  0  0  0  0  0  0  0  0
    1.2199    1.5263   -1.5730 C   0  0  0  0  0  0  0  0  0  0  0  0
    1.0957    3.0033   -1.8931 C   0  0  0  0  0  0  0  0  0  0  0  0
    1.9643    3.8937   -1.0938 N   0  0  0  0  0  0  0  0  0  0  0  0
    1.6716    4.3140    0.2042 C   0  0  0  0  0  0  0  0  0  0  0  0
    2.4986    5.3130    0.5827 C   0  0  0  0  0  0  0  0  0  0  0  0
    2.4377    6.0550    1.7333 C   0  0  0  0  0  0  0  0  0  0  0  0
    1.6743    5.7785    2.8204 C   0  0  0  0  0  0  0  0  0  0  0  0
    0.8554    4.6843    3.0067 C   0  0  0  0  0  0  0  0  0  0  0  0
    1.4221    3.4616    3.4125 C   0  0  0  0  0  0  0  0  0  0  0  0
    0.5998    2.3585    3.6950 C   0  0  0  0  0  0  0  0  0  0  0  0
   -0.7926    2.4763    3.5861 C   0  0  0  0  0  0  0  0  0  0  0  0
   -1.8226    1.1091    4.0022 Cl  0  0  0  0  0  0  0  0  0  0  0  0
   -1.3650    3.6834    3.1582 C   0  0  0  0  0  0  0  0  0  0  0  0
   -0.5450    4.7878    2.8664 C   0  0  0  0  0  0  0  0  0  0  0  0
   -1.2926    6.2879    2.3197 Cl  0  0  0  0  0  0  0  0  0  0  0  0
    1.8040    6.7011    3.7746 C   0  0  0  0  0  0  0  0  0  0  0  0
    1.3072    6.8382    4.8856 O   0  0  0  0  0  0  0  0  0  0  0  0
    2.7080    7.6451    3.3334 N   0  0  0  0  0  0  0  0  0  0  0  0
    3.0435    7.2334    2.0437 C   0  0  0  0  0  0  0  0  0  0  0  0
    3.7243    8.0396    1.4233 O   0  0  0  0  0  0  0  0  0  0  0  0
    3.3974    5.4728   -0.4926 C   0  0  0  0  0  0  0  0  0  0  0  0
    4.6380    6.1362   -0.5997 C   0  0  0  0  0  0  0  0  0  0  0  0
    5.3639    6.0684   -1.8081 C   0  0  0  0  0  0  0  0  0  0  0  0
    4.8872    5.3030   -2.8948 C   0  0  0  0  0  0  0  0  0  0  0  0
    3.7161    4.5387   -2.7581 C   0  0  0  0  0  0  0  0  0  0  0  0
    3.0174    4.6332   -1.5476 C   0  0  0  0  0  0  0  0  0  0  0  0
    1.1219    1.1883   -0.2132 N   0  0  0  0  0  0  0  0  0  0  0  0
   -0.0128    0.4145    0.3141 C   0  0  0  0  0  0  0  0  0  0  0  0
   -1.3147    1.2230    0.1997 C   0  0  0  0  0  0  0  0  0  0  0  0
   -2.3534    0.4555    0.8174 O   0  0  0  0  0  0  0  0  0  0  0  0
   -3.6442    1.0931    0.8970 C   0  0  0  0  0  0  0  0  0  0  0  0
   -4.3681    1.0302   -0.4752 C   0  0  0  0  0  0  0  0  0  0  0  0
   -5.1151   -0.2028   -0.5963 O   0  0  0  0  0  0  0  0  0  0  0  0
   -4.4112   -1.4556   -0.5019 C   0  0  0  0  0  0  0  0  0  0  0  0
   -3.4064   -1.5794   -1.6633 C   0  0  0  0  0  0  0  0  0  0  0  0
   -2.7695   -2.9023   -1.6200 N   0  0  0  0  0  0  0  0  0  0  0  0
   -1.6507   -3.2763   -2.3517 C   0  0  0  0  0  0  0  0  0  0  0  0
   -1.0553   -2.4442   -3.3292 C   0  0  0  0  0  0  0  0  0  0  0  0
    0.1027   -2.8587   -4.0310 C   0  0  0  0  0  0  0  0  0  0  0  0
    0.6836   -4.1193   -3.7772 C   0  0  0  0  0  0  0  0  0  0  0  0
    0.0764   -4.9358   -2.8163 C   0  0  0  0  0  0  0  0  0  0  0  0
   -1.0575   -4.5233   -2.1212 C   0  0  0  0  0  0  0  0  0  0  0  0
   -1.3877   -5.5152   -1.2277 C   0  0  0  0  0  0  0  0  0  0  0  0
   -2.3523   -5.5678   -0.4717 O   0  0  0  0  0  0  0  0  0  0  0  0
   -0.4786   -6.5739   -1.3656 N   0  0  0  0  0  0  0  0  0  0  0  0
   -0.1523   -7.5567   -0.3095 C   0  0  0  0  0  0  0  0  0  0  0  0
   -1.2812   -8.5991   -0.1656 C   0  0  0  0  0  0  0  0  0  0  0  0
   -0.9571   -9.5723    0.9887 C   0  0  0  0  0  0  0  0  0  0  0  0
   -0.6511   -8.8370    2.2739 C   0  0  0  0  0  0  0  0  0  0  0  0
   -0.7923   -9.3346    3.3810 O   0  0  0  0  0  0  0  0  0  0  0  0
    0.0258   -7.6140    2.2099 N   0  0  0  0  0  0  0  0  0  0  0  0
    0.1857   -6.8866    1.0196 C   0  0  0  0  0  0  0  0  0  0  0  0
    0.8298   -5.8516    1.1173 O   0  0  0  0  0  0  0  0  0  0  0  0
    0.4346   -6.1835   -2.3551 C   0  0  0  0  0  0  0  0  0  0  0  0
    1.3408   -6.9098   -2.7431 O   0  0  0  0  0  0  0  0  0  0  0  0
    1.3171    3.1494   -2.9570 H   0  0  0  0  0  0  0  0  0  0  0  0
    0.0529    3.3042   -1.7424 H   0  0  0  0  0  0  0  0  0  0  0  0
    0.8025    3.8961    0.6985 H   0  0  0  0  0  0  0  0  0  0  0  0
    2.5001    3.3828    3.5240 H   0  0  0  0  0  0  0  0  0  0  0  0
    1.0415    1.4244    4.0329 H   0  0  0  0  0  0  0  0  0  0  0  0
   -2.4462    3.7731    3.0818 H   0  0  0  0  0  0  0  0  0  0  0  0
    2.7457    8.5997    3.6578 H   0  0  0  0  0  0  0  0  0  0  0  0
    5.0932    6.6482    0.2354 H   0  0  0  0  0  0  0  0  0  0  0  0
    6.3156    6.5886   -1.8896 H   0  0  0  0  0  0  0  0  0  0  0  0
    5.4607    5.2594   -3.8184 H   0  0  0  0  0  0  0  0  0  0  0  0
    3.3844    3.8845   -3.5603 H   0  0  0  0  0  0  0  0  0  0  0  0
    1.6993    1.7067    0.4389 H   0  0  0  0  0  0  0  0  0  0  0  0
    0.1732    0.1582    1.3673 H   0  0  0  0  0  0  0  0  0  0  0  0
   -0.1104   -0.5268   -0.2484 H   0  0  0  0  0  0  0  0  0  0  0  0
   -1.5305    1.4127   -0.8595 H   0  0  0  0  0  0  0  0  0  0  0  0
   -1.1858    2.1835    0.7150 H   0  0  0  0  0  0  0  0  0  0  0  0
   -3.5358    2.1406    1.2088 H   0  0  0  0  0  0  0  0  0  0  0  0
   -4.2687    0.5902    1.6466 H   0  0  0  0  0  0  0  0  0  0  0  0
   -3.6645    1.1573   -1.3070 H   0  0  0  0  0  0  0  0  0  0  0  0
   -5.0748    1.8699   -0.5243 H   0  0  0  0  0  0  0  0  0  0  0  0
   -3.8916   -1.5506    0.4587 H   0  0  0  0  0  0  0  0  0  0  0  0
   -5.1293   -2.2824   -0.5662 H   0  0  0  0  0  0  0  0  0  0  0  0
   -3.9299   -1.4472   -2.6206 H   0  0  0  0  0  0  0  0  0  0  0  0
   -2.6370   -0.8016   -1.5699 H   0  0  0  0  0  0  0  0  0  0  0  0
   -3.1038   -3.5792   -0.9414 H   0  0  0  0  0  0  0  0  0  0  0  0
   -1.4773   -1.4682   -3.5488 H   0  0  0  0  0  0  0  0  0  0  0  0
    0.5515   -2.1947   -4.7656 H   0  0  0  0  0  0  0  0  0  0  0  0
    1.5804   -4.4425   -4.2984 H   0  0  0  0  0  0  0  0  0  0  0  0
    0.7573   -8.0876   -0.6214 H   0  0  0  0  0  0  0  0  0  0  0  0
   -1.4155   -9.1430   -1.1098 H   0  0  0  0  0  0  0  0  0  0  0  0
   -2.2264   -8.0823    0.0474 H   0  0  0  0  0  0  0  0  0  0  0  0
   -1.8023  -10.2531    1.1545 H   0  0  0  0  0  0  0  0  0  0  0  0
   -0.0958  -10.1993    0.7264 H   0  0  0  0  0  0  0  0  0  0  0  0
    0.3176   -7.1827    3.0728 H   0  0  0  0  0  0  0  0  0  0  0  0
  1  2  2  0  0  0  0
  2  3  1  0  0  0  0
  2 28  1  0  0  0  0
  3  4  1  0  0  0  0
  3 57  1  0  0  0  0
  3 58  1  0  0  0  0
  4  5  1  0  0  0  0
  4 27  1  0  0  0  0
  5  6  2  0  0  0  0
  5 59  1  0  0  0  0
  6  7  1  0  0  0  0
  6 22  1  0  0  0  0
  7  8  2  0  0  0  0
  7 20  1  0  0  0  0
  8  9  1  0  0  0  0
  8 17  1  0  0  0  0
  9 10  2  0  0  0  0
  9 15  1  0  0  0  0
 10 11  1  0  0  0  0
 10 60  1  0  0  0  0
 11 12  2  0  0  0  0
 11 61  1  0  0  0  0
 12 13  1  0  0  0  0
 12 14  1  0  0  0  0
 14 15  2  0  0  0  0
 14 62  1  0  0  0  0
 15 16  1  0  0  0  0
 17 18  2  0  0  0  0
 17 19  1  0  0  0  0
 19 20  1  0  0  0  0
 19 63  1  0  0  0  0
 20 21  2  0  0  0  0
 22 23  2  0  0  0  0
 22 27  1  0  0  0  0
 23 24  1  0  0  0  0
 23 64  1  0  0  0  0
 24 25  2  0  0  0  0
 24 65  1  0  0  0  0
 25 26  1  0  0  0  0
 25 66  1  0  0  0  0
 26 27  2  0  0  0  0
 26 67  1  0  0  0  0
 28 29  1  0  0  0  0
 28 68  1  0  0  0  0
 29 30  1  0  0  0  0
 29 69  1  0  0  0  0
 29 70  1  0  0  0  0
 30 31  1  0  0  0  0
 30 71  1  0  0  0  0
 30 72  1  0  0  0  0
 31 32  1  0  0  0  0
 32 33  1  0  0  0  0
 32 73  1  0  0  0  0
 32 74  1  0  0  0  0
 33 34  1  0  0  0  0
 33 75  1  0  0  0  0
 33 76  1  0  0  0  0
 34 35  1  0  0  0  0
 35 36  1  0  0  0  0
 35 77  1  0  0  0  0
 35 78  1  0  0  0  0
 36 37  1  0  0  0  0
 36 79  1  0  0  0  0
 36 80  1  0  0  0  0
 37 38  1  0  0  0  0
 37 81  1  0  0  0  0
 38 39  2  0  0  0  0
 38 43  1  0  0  0  0
 39 40  1  0  0  0  0
 39 82  1  0  0  0  0
 40 41  2  0  0  0  0
 40 83  1  0  0  0  0
 41 42  1  0  0  0  0
 41 84  1  0  0  0  0
 42 43  2  0  0  0  0
 42 55  1  0  0  0  0
 43 44  1  0  0  0  0
 44 45  2  0  0  0  0
 44 46  1  0  0  0  0
 46 47  1  0  0  0  0
 46 55  1  0  0  0  0
 47 48  1  0  0  0  0
 47 53  1  0  0  0  0
 47 85  1  0  0  0  0
 48 49  1  0  0  0  0
 48 86  1  0  0  0  0
 48 87  1  0  0  0  0
 49 50  1  0  0  0  0
 49 88  1  0  0  0  0
 49 89  1  0  0  0  0
 50 51  2  0  0  0  0
 50 52  1  0  0  0  0
 52 53  1  0  0  0  0
 52 90  1  0  0  0  0
 53 54  2  0  0  0  0
 55 56  2  0  0  0  0
M  END
$$$$
protac3895RUN2
  chem.cr 07102519423D
protac3895RUN2
 90 96  0  0  0  0  0  0  0  0999 V2000
    0.1482    0.0439   -2.6883 O   0  0  0  0  0  0  0  0  0  0  0  0
    0.6304    0.6725   -1.7556 C   0  0  0  0  0  0  0  0  0  0  0  0
    1.1296    2.0894   -1.9229 C   0  0  0  0  0  0  0  0  0  0  0  0
    2.3279    2.4356   -1.1292 N   0  0  0  0  0  0  0  0  0  0  0  0
    2.1870    2.8344    0.2034 C   0  0  0  0  0  0  0  0  0  0  0  0
    3.0936    3.7778    0.5439 C   0  0  0  0  0  0  0  0  0  0  0  0
    3.1447    4.4948    1.7118 C   0  0  0  0  0  0  0  0  0  0  0  0
    2.4088    4.2612    2.8280 C   0  0  0  0  0  0  0  0  0  0  0  0
    1.4817    3.2516    3.0132 C   0  0  0  0  0  0  0  0  0  0  0  0
    1.9137    1.9454    3.3229 C   0  0  0  0  0  0  0  0  0  0  0  0
    0.9772    0.9078    3.4924 C   0  0  0  0  0  0  0  0  0  0  0  0
   -0.3957    1.1755    3.3678 C   0  0  0  0  0  0  0  0  0  0  0  0
   -1.5723   -0.1080    3.6157 Cl  0  0  0  0  0  0  0  0  0  0  0  0
   -0.8338    2.4721    3.0586 C   0  0  0  0  0  0  0  0  0  0  0  0
    0.0984    3.5075    2.8782 C   0  0  0  0  0  0  0  0  0  0  0  0
   -0.4882    5.1176    2.4640 Cl  0  0  0  0  0  0  0  0  0  0  0  0
    2.6537    5.1600    3.7815 C   0  0  0  0  0  0  0  0  0  0  0  0
    2.2050    5.3369    4.9062 O   0  0  0  0  0  0  0  0  0  0  0  0
    3.6137    6.0356    3.3156 N   0  0  0  0  0  0  0  0  0  0  0  0
    3.8522    5.6183    2.0088 C   0  0  0  0  0  0  0  0  0  0  0  0
    4.5603    6.3799    1.3674 O   0  0  0  0  0  0  0  0  0  0  0  0
    3.9110    3.9162   -0.5959 C   0  0  0  0  0  0  0  0  0  0  0  0
    5.1665    4.5311   -0.8024 C   0  0  0  0  0  0  0  0  0  0  0  0
    5.7575    4.4911   -2.0840 C   0  0  0  0  0  0  0  0  0  0  0  0
    5.1508    3.7805   -3.1399 C   0  0  0  0  0  0  0  0  0  0  0  0
    3.9713    3.0523   -2.9081 C   0  0  0  0  0  0  0  0  0  0  0  0
    3.3932    3.1313   -1.6332 C   0  0  0  0  0  0  0  0  0  0  0  0
    0.2200    0.3246   -0.4606 N   0  0  0  0  0  0  0  0  0  0  0  0
   -1.1144   -0.2173   -0.1658 C   0  0  0  0  0  0  0  0  0  0  0  0
   -2.2049    0.8592   -0.2894 C   0  0  0  0  0  0  0  0  0  0  0  0
   -3.4125    0.3069    0.2529 O   0  0  0  0  0  0  0  0  0  0  0  0
   -4.5837    1.1421    0.1816 C   0  0  0  0  0  0  0  0  0  0  0  0
   -5.1684    1.1308   -1.2577 C   0  0  0  0  0  0  0  0  0  0  0  0
   -6.0439   -0.0057   -1.4495 O   0  0  0  0  0  0  0  0  0  0  0  0
   -5.4966   -1.3336   -1.3118 C   0  0  0  0  0  0  0  0  0  0  0  0
   -4.5088   -1.6258   -2.4637 C   0  0  0  0  0  0  0  0  0  0  0  0
   -3.6741   -2.7855   -2.1215 N   0  0  0  0  0  0  0  0  0  0  0  0
   -2.4483   -3.0108   -2.7299 C   0  0  0  0  0  0  0  0  0  0  0  0
   -2.2319   -2.7651   -4.1045 C   0  0  0  0  0  0  0  0  0  0  0  0
   -0.9556   -2.9614   -4.6872 C   0  0  0  0  0  0  0  0  0  0  0  0
    0.1307   -3.4011   -3.9032 C   0  0  0  0  0  0  0  0  0  0  0  0
   -0.0956   -3.6352   -2.5422 C   0  0  0  0  0  0  0  0  0  0  0  0
   -1.3592   -3.4611   -1.9745 C   0  0  0  0  0  0  0  0  0  0  0  0
   -1.2642   -3.7508   -0.6336 C   0  0  0  0  0  0  0  0  0  0  0  0
   -2.1715   -3.9037    0.1762 O   0  0  0  0  0  0  0  0  0  0  0  0
    0.0587   -4.1171   -0.3605 N   0  0  0  0  0  0  0  0  0  0  0  0
    0.6052   -4.5460    0.9394 C   0  0  0  0  0  0  0  0  0  0  0  0
    0.2351   -6.0238    1.1861 C   0  0  0  0  0  0  0  0  0  0  0  0
    0.6408   -6.4386    2.6130 C   0  0  0  0  0  0  0  0  0  0  0  0
    0.0006   -5.5299    3.6350 C   0  0  0  0  0  0  0  0  0  0  0  0
   -0.2682   -5.8824    4.7727 O   0  0  0  0  0  0  0  0  0  0  0  0
   -0.1250   -4.1676    3.3375 N   0  0  0  0  0  0  0  0  0  0  0  0
    0.1885   -3.6225    2.0827 C   0  0  0  0  0  0  0  0  0  0  0  0
    0.3616   -2.4104    2.0617 O   0  0  0  0  0  0  0  0  0  0  0  0
    0.7790   -4.0274   -1.5547 C   0  0  0  0  0  0  0  0  0  0  0  0
    1.8889   -4.5336   -1.6830 O   0  0  0  0  0  0  0  0  0  0  0  0
    1.3487    2.2445   -2.9849 H   0  0  0  0  0  0  0  0  0  0  0  0
    0.3199    2.7794   -1.6591 H   0  0  0  0  0  0  0  0  0  0  0  0
    1.3334    2.4554    0.7497 H   0  0  0  0  0  0  0  0  0  0  0  0
    2.9762    1.7374    3.4296 H   0  0  0  0  0  0  0  0  0  0  0  0
    1.3122   -0.0990    3.7332 H   0  0  0  0  0  0  0  0  0  0  0  0
   -1.8962    2.6780    2.9675 H   0  0  0  0  0  0  0  0  0  0  0  0
    3.6720    7.0009    3.5986 H   0  0  0  0  0  0  0  0  0  0  0  0
    5.7267    4.9922   -0.0031 H   0  0  0  0  0  0  0  0  0  0  0  0
    6.7078    4.9913   -2.2506 H   0  0  0  0  0  0  0  0  0  0  0  0
    5.6242    3.7525   -4.1173 H   0  0  0  0  0  0  0  0  0  0  0  0
    3.5414    2.4303   -3.6879 H   0  0  0  0  0  0  0  0  0  0  0  0
    0.8895    0.4098    0.2946 H   0  0  0  0  0  0  0  0  0  0  0  0
   -1.1211   -0.6414    0.8459 H   0  0  0  0  0  0  0  0  0  0  0  0
   -1.3353   -1.0323   -0.8644 H   0  0  0  0  0  0  0  0  0  0  0  0
   -2.3171    1.1312   -1.3463 H   0  0  0  0  0  0  0  0  0  0  0  0
   -1.9094    1.7529    0.2737 H   0  0  0  0  0  0  0  0  0  0  0  0
   -4.3330    2.1705    0.4735 H   0  0  0  0  0  0  0  0  0  0  0  0
   -5.3507    0.7813    0.8801 H   0  0  0  0  0  0  0  0  0  0  0  0
   -4.3708    1.1597   -2.0071 H   0  0  0  0  0  0  0  0  0  0  0  0
   -5.7569    2.0472   -1.3885 H   0  0  0  0  0  0  0  0  0  0  0  0
   -4.9993   -1.4520   -0.3409 H   0  0  0  0  0  0  0  0  0  0  0  0
   -6.3075   -2.0729   -1.3447 H   0  0  0  0  0  0  0  0  0  0  0  0
   -5.0763   -1.8188   -3.3835 H   0  0  0  0  0  0  0  0  0  0  0  0
   -3.8575   -0.7607   -2.6377 H   0  0  0  0  0  0  0  0  0  0  0  0
   -3.7342   -3.1247   -1.1663 H   0  0  0  0  0  0  0  0  0  0  0  0
   -3.0511   -2.4213   -4.7274 H   0  0  0  0  0  0  0  0  0  0  0  0
   -0.8059   -2.7607   -5.7446 H   0  0  0  0  0  0  0  0  0  0  0  0
    1.1190   -3.5417   -4.3331 H   0  0  0  0  0  0  0  0  0  0  0  0
    1.6990   -4.4741    0.8793 H   0  0  0  0  0  0  0  0  0  0  0  0
    0.7174   -6.6627    0.4343 H   0  0  0  0  0  0  0  0  0  0  0  0
   -0.8499   -6.1500    1.0666 H   0  0  0  0  0  0  0  0  0  0  0  0
    0.3354   -7.4751    2.8046 H   0  0  0  0  0  0  0  0  0  0  0  0
    1.7304   -6.4025    2.7288 H   0  0  0  0  0  0  0  0  0  0  0  0
   -0.4526   -3.5469    4.0622 H   0  0  0  0  0  0  0  0  0  0  0  0
  1  2  2  0  0  0  0
  2  3  1  0  0  0  0
  2 28  1  0  0  0  0
  3  4  1  0  0  0  0
  3 57  1  0  0  0  0
  3 58  1  0  0  0  0
  4  5  1  0  0  0  0
  4 27  1  0  0  0  0
  5  6  2  0  0  0  0
  5 59  1  0  0  0  0
  6  7  1  0  0  0  0
  6 22  1  0  0  0  0
  7  8  2  0  0  0  0
  7 20  1  0  0  0  0
  8  9  1  0  0  0  0
  8 17  1  0  0  0  0
  9 10  2  0  0  0  0
  9 15  1  0  0  0  0
 10 11  1  0  0  0  0
 10 60  1  0  0  0  0
 11 12  2  0  0  0  0
 11 61  1  0  0  0  0
 12 13  1  0  0  0  0
 12 14  1  0  0  0  0
 14 15  2  0  0  0  0
 14 62  1  0  0  0  0
 15 16  1  0  0  0  0
 17 18  2  0  0  0  0
 17 19  1  0  0  0  0
 19 20  1  0  0  0  0
 19 63  1  0  0  0  0
 20 21  2  0  0  0  0
 22 23  2  0  0  0  0
 22 27  1  0  0  0  0
 23 24  1  0  0  0  0
 23 64  1  0  0  0  0
 24 25  2  0  0  0  0
 24 65  1  0  0  0  0
 25 26  1  0  0  0  0
 25 66  1  0  0  0  0
 26 27  2  0  0  0  0
 26 67  1  0  0  0  0
 28 29  1  0  0  0  0
 28 68  1  0  0  0  0
 29 30  1  0  0  0  0
 29 69  1  0  0  0  0
 29 70  1  0  0  0  0
 30 31  1  0  0  0  0
 30 71  1  0  0  0  0
 30 72  1  0  0  0  0
 31 32  1  0  0  0  0
 32 33  1  0  0  0  0
 32 73  1  0  0  0  0
 32 74  1  0  0  0  0
 33 34  1  0  0  0  0
 33 75  1  0  0  0  0
 33 76  1  0  0  0  0
 34 35  1  0  0  0  0
 35 36  1  0  0  0  0
 35 77  1  0  0  0  0
 35 78  1  0  0  0  0
 36 37  1  0  0  0  0
 36 79  1  0  0  0  0
 36 80  1  0  0  0  0
 37 38  1  0  0  0  0
 37 81  1  0  0  0  0
 38 39  2  0  0  0  0
 38 43  1  0  0  0  0
 39 40  1  0  0  0  0
 39 82  1  0  0  0  0
 40 41  2  0  0  0  0
 40 83  1  0  0  0  0
 41 42  1  0  0  0  0
 41 84  1  0  0  0  0
 42 43  2  0  0  0  0
 42 55  1  0  0  0  0
 43 44  1  0  0  0  0
 44 45  2  0  0  0  0
 44 46  1  0  0  0  0
 46 47  1  0  0  0  0
 46 55  1  0  0  0  0
 47 48  1  0  0  0  0
 47 53  1  0  0  0  0
 47 85  1  0  0  0  0
 48 49  1  0  0  0  0
 48 86  1  0  0  0  0
 48 87  1  0  0  0  0
 49 50  1  0  0  0  0
 49 88  1  0  0  0  0
 49 89  1  0  0  0  0
 50 51  2  0  0  0  0
 50 52  1  0  0  0  0
 52 53  1  0  0  0  0
 52 90  1  0  0  0  0
 53 54  2  0  0  0  0
 55 56  2  0  0  0  0
M  END
$$$$
protac3895RUN2
  chem.cr 07102519423D
protac3895RUN2
 90 96  0  0  0  0  0  0  0  0999 V2000
   -2.2451    1.8976   -0.8182 O   0  0  0  0  0  0  0  0  0  0  0  0
   -1.3292    2.2607   -0.0941 C   0  0  0  0  0  0  0  0  0  0  0  0
   -1.1294    3.6976    0.3302 C   0  0  0  0  0  0  0  0  0  0  0  0
    0.1110    4.3081   -0.1799 N   0  0  0  0  0  0  0  0  0  0  0  0
    0.6023    4.1233   -1.4739 C   0  0  0  0  0  0  0  0  0  0  0  0
    1.5993    5.0007   -1.7329 C   0  0  0  0  0  0  0  0  0  0  0  0
    2.2257    5.2181   -2.9330 C   0  0  0  0  0  0  0  0  0  0  0  0
    2.1248    4.4417   -4.0420 C   0  0  0  0  0  0  0  0  0  0  0  0
    1.4224    3.2627   -4.1755 C   0  0  0  0  0  0  0  0  0  0  0  0
    0.2310    3.2527   -4.9276 C   0  0  0  0  0  0  0  0  0  0  0  0
   -0.4787    2.0541   -5.1120 C   0  0  0  0  0  0  0  0  0  0  0  0
    0.0030    0.8628   -4.5447 C   0  0  0  0  0  0  0  0  0  0  0  0
   -0.8701   -0.6436   -4.7886 Cl  0  0  0  0  0  0  0  0  0  0  0  0
    1.1927    0.8674   -3.7987 C   0  0  0  0  0  0  0  0  0  0  0  0
    1.9064    2.0610   -3.6160 C   0  0  0  0  0  0  0  0  0  0  0  0
    3.4111    2.0297   -2.6989 Cl  0  0  0  0  0  0  0  0  0  0  0  0
    2.8279    4.9309   -5.0608 C   0  0  0  0  0  0  0  0  0  0  0  0
    3.0063    4.5577   -6.2139 O   0  0  0  0  0  0  0  0  0  0  0  0
    3.4428    6.0946   -4.6433 N   0  0  0  0  0  0  0  0  0  0  0  0
    3.0144    6.2537   -3.3251 C   0  0  0  0  0  0  0  0  0  0  0  0
    3.3343    7.3210   -2.8194 O   0  0  0  0  0  0  0  0  0  0  0  0
    1.8070    5.6886   -0.5155 C   0  0  0  0  0  0  0  0  0  0  0  0
    2.8719    6.4898   -0.0470 C   0  0  0  0  0  0  0  0  0  0  0  0
    2.8325    6.9963    1.2723 C   0  0  0  0  0  0  0  0  0  0  0  0
    1.7805    6.6607    2.1495 C   0  0  0  0  0  0  0  0  0  0  0  0
    0.7842    5.7627    1.7334 C   0  0  0  0  0  0  0  0  0  0  0  0
    0.8422    5.2893    0.4166 C   0  0  0  0  0  0  0  0  0  0  0  0
   -0.3839    1.2926    0.2551 N   0  0  0  0  0  0  0  0  0  0  0  0
    0.7550    1.4667    1.1745 C   0  0  0  0  0  0  0  0  0  0  0  0
    1.4479    0.1084    1.4083 C   0  0  0  0  0  0  0  0  0  0  0  0
    1.6839   -0.4366    0.1072 O   0  0  0  0  0  0  0  0  0  0  0  0
    1.9429   -1.8414    0.0331 C   0  0  0  0  0  0  0  0  0  0  0  0
    1.7982   -2.2147   -1.4579 C   0  0  0  0  0  0  0  0  0  0  0  0
    0.4793   -1.8549   -1.9253 O   0  0  0  0  0  0  0  0  0  0  0  0
   -0.6100   -2.7313   -1.5905 C   0  0  0  0  0  0  0  0  0  0  0  0
   -1.7039   -1.8909   -0.8931 C   0  0  0  0  0  0  0  0  0  0  0  0
   -1.2588   -1.6181    0.4743 N   0  0  0  0  0  0  0  0  0  0  0  0
   -2.1125   -1.6394    1.5617 C   0  0  0  0  0  0  0  0  0  0  0  0
   -3.0690   -0.6298    1.7768 C   0  0  0  0  0  0  0  0  0  0  0  0
   -3.9089   -0.6603    2.9168 C   0  0  0  0  0  0  0  0  0  0  0  0
   -3.8149   -1.7172    3.8491 C   0  0  0  0  0  0  0  0  0  0  0  0
   -2.8601   -2.7140    3.6121 C   0  0  0  0  0  0  0  0  0  0  0  0
   -2.0208   -2.6641    2.5057 C   0  0  0  0  0  0  0  0  0  0  0  0
   -1.2542   -3.8020    2.5064 C   0  0  0  0  0  0  0  0  0  0  0  0
   -0.2957   -4.0679    1.7895 O   0  0  0  0  0  0  0  0  0  0  0  0
   -1.6278   -4.6146    3.5868 N   0  0  0  0  0  0  0  0  0  0  0  0
   -1.7404   -6.0824    3.4410 C   0  0  0  0  0  0  0  0  0  0  0  0
   -0.3444   -6.7520    3.4958 C   0  0  0  0  0  0  0  0  0  0  0  0
   -0.4219   -8.2098    2.9950 C   0  0  0  0  0  0  0  0  0  0  0  0
   -1.0085   -8.2685    1.6066 C   0  0  0  0  0  0  0  0  0  0  0  0
   -0.7070   -9.1124    0.7767 O   0  0  0  0  0  0  0  0  0  0  0  0
   -2.1099   -7.4568    1.3280 N   0  0  0  0  0  0  0  0  0  0  0  0
   -2.5477   -6.4449    2.1913 C   0  0  0  0  0  0  0  0  0  0  0  0
   -3.6278   -5.9396    1.9130 O   0  0  0  0  0  0  0  0  0  0  0  0
   -2.5980   -3.8821    4.2922 C   0  0  0  0  0  0  0  0  0  0  0  0
   -3.1544   -4.3241    5.2908 O   0  0  0  0  0  0  0  0  0  0  0  0
   -1.9766    4.2890   -0.0372 H   0  0  0  0  0  0  0  0  0  0  0  0
   -1.1438    3.7467    1.4227 H   0  0  0  0  0  0  0  0  0  0  0  0
    0.0918    3.4153   -2.1215 H   0  0  0  0  0  0  0  0  0  0  0  0
   -0.1327    4.1735   -5.3772 H   0  0  0  0  0  0  0  0  0  0  0  0
   -1.3915    2.0451   -5.7001 H   0  0  0  0  0  0  0  0  0  0  0  0
    1.5692   -0.0557   -3.3735 H   0  0  0  0  0  0  0  0  0  0  0  0
    3.6188    6.8724   -5.2594 H   0  0  0  0  0  0  0  0  0  0  0  0
    3.7493    6.6935   -0.6434 H   0  0  0  0  0  0  0  0  0  0  0  0
    3.6373    7.6347    1.6250 H   0  0  0  0  0  0  0  0  0  0  0  0
    1.7657    7.0568    3.1618 H   0  0  0  0  0  0  0  0  0  0  0  0
    0.0095    5.4373    2.4190 H   0  0  0  0  0  0  0  0  0  0  0  0
   -0.4403    0.4039   -0.2357 H   0  0  0  0  0  0  0  0  0  0  0  0
    0.4138    1.8788    2.1343 H   0  0  0  0  0  0  0  0  0  0  0  0
    1.4759    2.1680    0.7313 H   0  0  0  0  0  0  0  0  0  0  0  0
    0.7860   -0.5420    1.9991 H   0  0  0  0  0  0  0  0  0  0  0  0
    2.3921    0.2361    1.9553 H   0  0  0  0  0  0  0  0  0  0  0  0
    1.2351   -2.4274    0.6288 H   0  0  0  0  0  0  0  0  0  0  0  0
    2.9536   -2.0706    0.3934 H   0  0  0  0  0  0  0  0  0  0  0  0
    1.9831   -3.2862   -1.6039 H   0  0  0  0  0  0  0  0  0  0  0  0
    2.5571   -1.6567   -2.0192 H   0  0  0  0  0  0  0  0  0  0  0  0
   -1.0199   -3.1722   -2.5083 H   0  0  0  0  0  0  0  0  0  0  0  0
   -0.2912   -3.5517   -0.9351 H   0  0  0  0  0  0  0  0  0  0  0  0
   -1.8661   -0.9547   -1.4458 H   0  0  0  0  0  0  0  0  0  0  0  0
   -2.6477   -2.4531   -0.8776 H   0  0  0  0  0  0  0  0  0  0  0  0
   -0.3454   -2.0044    0.6742 H   0  0  0  0  0  0  0  0  0  0  0  0
   -3.1552    0.1814    1.0598 H   0  0  0  0  0  0  0  0  0  0  0  0
   -4.6399    0.1288    3.0685 H   0  0  0  0  0  0  0  0  0  0  0  0
   -4.4733   -1.7727    4.7123 H   0  0  0  0  0  0  0  0  0  0  0  0
   -2.3171   -6.4650    4.2933 H   0  0  0  0  0  0  0  0  0  0  0  0
    0.0489   -6.7089    4.5204 H   0  0  0  0  0  0  0  0  0  0  0  0
    0.3665   -6.2013    2.8655 H   0  0  0  0  0  0  0  0  0  0  0  0
    0.5795   -8.6605    2.9857 H   0  0  0  0  0  0  0  0  0  0  0  0
   -1.0416   -8.8155    3.6680 H   0  0  0  0  0  0  0  0  0  0  0  0
   -2.6028   -7.5962    0.4583 H   0  0  0  0  0  0  0  0  0  0  0  0
  1  2  2  0  0  0  0
  2  3  1  0  0  0  0
  2 28  1  0  0  0  0
  3  4  1  0  0  0  0
  3 57  1  0  0  0  0
  3 58  1  0  0  0  0
  4  5  1  0  0  0  0
  4 27  1  0  0  0  0
  5  6  2  0  0  0  0
  5 59  1  0  0  0  0
  6  7  1  0  0  0  0
  6 22  1  0  0  0  0
  7  8  2  0  0  0  0
  7 20  1  0  0  0  0
  8  9  1  0  0  0  0
  8 17  1  0  0  0  0
  9 10  2  0  0  0  0
  9 15  1  0  0  0  0
 10 11  1  0  0  0  0
 10 60  1  0  0  0  0
 11 12  2  0  0  0  0
 11 61  1  0  0  0  0
 12 13  1  0  0  0  0
 12 14  1  0  0  0  0
 14 15  2  0  0  0  0
 14 62  1  0  0  0  0
 15 16  1  0  0  0  0
 17 18  2  0  0  0  0
 17 19  1  0  0  0  0
 19 20  1  0  0  0  0
 19 63  1  0  0  0  0
 20 21  2  0  0  0  0
 22 23  2  0  0  0  0
 22 27  1  0  0  0  0
 23 24  1  0  0  0  0
 23 64  1  0  0  0  0
 24 25  2  0  0  0  0
 24 65  1  0  0  0  0
 25 26  1  0  0  0  0
 25 66  1  0  0  0  0
 26 27  2  0  0  0  0
 26 67  1  0  0  0  0
 28 29  1  0  0  0  0
 28 68  1  0  0  0  0
 29 30  1  0  0  0  0
 29 69  1  0  0  0  0
 29 70  1  0  0  0  0
 30 31  1  0  0  0  0
 30 71  1  0  0  0  0
 30 72  1  0  0  0  0
 31 32  1  0  0  0  0
 32 33  1  0  0  0  0
 32 73  1  0  0  0  0
 32 74  1  0  0  0  0
 33 34  1  0  0  0  0
 33 75  1  0  0  0  0
 33 76  1  0  0  0  0
 34 35  1  0  0  0  0
 35 36  1  0  0  0  0
 35 77  1  0  0  0  0
 35 78  1  0  0  0  0
 36 37  1  0  0  0  0
 36 79  1  0  0  0  0
 36 80  1  0  0  0  0
 37 38  1  0  0  0  0
 37 81  1  0  0  0  0
 38 39  2  0  0  0  0
 38 43  1  0  0  0  0
 39 40  1  0  0  0  0
 39 82  1  0  0  0  0
 40 41  2  0  0  0  0
 40 83  1  0  0  0  0
 41 42  1  0  0  0  0
 41 84  1  0  0  0  0
 42 43  2  0  0  0  0
 42 55  1  0  0  0  0
 43 44  1  0  0  0  0
 44 45  2  0  0  0  0
 44 46  1  0  0  0  0
 46 47  1  0  0  0  0
 46 55  1  0  0  0  0
 47 48  1  0  0  0  0
 47 53  1  0  0  0  0
 47 85  1  0  0  0  0
 48 49  1  0  0  0  0
 48 86  1  0  0  0  0
 48 87  1  0  0  0  0
 49 50  1  0  0  0  0
 49 88  1  0  0  0  0
 49 89  1  0  0  0  0
 50 51  2  0  0  0  0
 50 52  1  0  0  0  0
 52 53  1  0  0  0  0
 52 90  1  0  0  0  0
 53 54  2  0  0  0  0
 55 56  2  0  0  0  0
M  END
$$$$
protac3895RUN2
  chem.cr 07102519423D
protac3895RUN2
 90 96  0  0  0  0  0  0  0  0999 V2000
    3.1170    3.6543    5.1535 O   0  0  0  0  0  0  0  0  0  0  0  0
    2.1008    4.1058    4.6425 C   0  0  0  0  0  0  0  0  0  0  0  0
    1.5950    5.4989    4.9247 C   0  0  0  0  0  0  0  0  0  0  0  0
    1.2322    6.2696    3.7226 N   0  0  0  0  0  0  0  0  0  0  0  0
    2.0903    6.2991    2.6156 C   0  0  0  0  0  0  0  0  0  0  0  0
    1.3887    6.3118    1.4610 C   0  0  0  0  0  0  0  0  0  0  0  0
    1.8801    6.1955    0.1914 C   0  0  0  0  0  0  0  0  0  0  0  0
    3.1741    6.3354   -0.1834 C   0  0  0  0  0  0  0  0  0  0  0  0
    4.2293    6.7228    0.6249 C   0  0  0  0  0  0  0  0  0  0  0  0
    5.2379    5.7964    0.9578 C   0  0  0  0  0  0  0  0  0  0  0  0
    6.3161    6.1833    1.7726 C   0  0  0  0  0  0  0  0  0  0  0  0
    6.4008    7.5021    2.2446 C   0  0  0  0  0  0  0  0  0  0  0  0
    7.7609    7.9906    3.2479 Cl  0  0  0  0  0  0  0  0  0  0  0  0
    5.4108    8.4365    1.9055 C   0  0  0  0  0  0  0  0  0  0  0  0
    4.3290    8.0521    1.0983 C   0  0  0  0  0  0  0  0  0  0  0  0
    3.1113    9.2611    0.6881 Cl  0  0  0  0  0  0  0  0  0  0  0  0
    3.3399    6.1080   -1.4869 C   0  0  0  0  0  0  0  0  0  0  0  0
    4.3170    6.1187   -2.2244 O   0  0  0  0  0  0  0  0  0  0  0  0
    2.1020    5.8270   -2.0321 N   0  0  0  0  0  0  0  0  0  0  0  0
    1.2242    5.8590   -0.9499 C   0  0  0  0  0  0  0  0  0  0  0  0
    0.0906    5.4804   -1.1993 O   0  0  0  0  0  0  0  0  0  0  0  0
    0.0435    6.4115    1.8503 C   0  0  0  0  0  0  0  0  0  0  0  0
   -1.1083    6.7917    1.1294 C   0  0  0  0  0  0  0  0  0  0  0  0
   -2.3308    6.9585    1.8149 C   0  0  0  0  0  0  0  0  0  0  0  0
   -2.4013    6.8174    3.2173 C   0  0  0  0  0  0  0  0  0  0  0  0
   -1.2335    6.5488    3.9521 C   0  0  0  0  0  0  0  0  0  0  0  0
   -0.0436    6.3566    3.2434 C   0  0  0  0  0  0  0  0  0  0  0  0
    1.2510    3.2463    3.9233 N   0  0  0  0  0  0  0  0  0  0  0  0
    1.2744    1.7819    4.0868 C   0  0  0  0  0  0  0  0  0  0  0  0
    1.5295    1.0266    2.7699 C   0  0  0  0  0  0  0  0  0  0  0  0
    0.2519    0.7071    2.1880 O   0  0  0  0  0  0  0  0  0  0  0  0
    0.2506   -0.3072    1.1634 C   0  0  0  0  0  0  0  0  0  0  0  0
    0.4070   -1.6952    1.8387 C   0  0  0  0  0  0  0  0  0  0  0  0
    0.5138   -2.7377    0.8533 O   0  0  0  0  0  0  0  0  0  0  0  0
   -0.6362   -2.9839    0.0302 C   0  0  0  0  0  0  0  0  0  0  0  0
   -0.4879   -4.4306   -0.4757 C   0  0  0  0  0  0  0  0  0  0  0  0
   -1.4836   -4.7904   -1.5017 N   0  0  0  0  0  0  0  0  0  0  0  0
   -2.6690   -5.4629   -1.2196 C   0  0  0  0  0  0  0  0  0  0  0  0
   -3.4403   -5.1900   -0.0648 C   0  0  0  0  0  0  0  0  0  0  0  0
   -4.6486   -5.8843    0.1901 C   0  0  0  0  0  0  0  0  0  0  0  0
   -5.1010   -6.8810   -0.6958 C   0  0  0  0  0  0  0  0  0  0  0  0
   -4.3277   -7.1451   -1.8306 C   0  0  0  0  0  0  0  0  0  0  0  0
   -3.1491   -6.4491   -2.0955 C   0  0  0  0  0  0  0  0  0  0  0  0
   -2.6197   -6.9376   -3.2726 C   0  0  0  0  0  0  0  0  0  0  0  0
   -1.4412   -6.9029   -3.6072 O   0  0  0  0  0  0  0  0  0  0  0  0
   -3.4661   -7.9555   -3.7456 N   0  0  0  0  0  0  0  0  0  0  0  0
   -3.5874   -8.4065   -5.1495 C   0  0  0  0  0  0  0  0  0  0  0  0
   -3.1214   -9.8719   -5.3010 C   0  0  0  0  0  0  0  0  0  0  0  0
   -1.5828   -9.9286   -5.3942 C   0  0  0  0  0  0  0  0  0  0  0  0
   -1.0773   -9.0728   -6.5310 C   0  0  0  0  0  0  0  0  0  0  0  0
   -0.1792   -9.4108   -7.2879 O   0  0  0  0  0  0  0  0  0  0  0  0
   -1.7691   -7.8975   -6.8460 N   0  0  0  0  0  0  0  0  0  0  0  0
   -2.9099   -7.4715   -6.1481 C   0  0  0  0  0  0  0  0  0  0  0  0
   -3.4141   -6.4229   -6.5255 O   0  0  0  0  0  0  0  0  0  0  0  0
   -4.5195   -8.0609   -2.8334 C   0  0  0  0  0  0  0  0  0  0  0  0
   -5.4484   -8.8478   -2.9810 O   0  0  0  0  0  0  0  0  0  0  0  0
    0.7268    5.4268    5.5887 H   0  0  0  0  0  0  0  0  0  0  0  0
    2.3750    6.0492    5.4639 H   0  0  0  0  0  0  0  0  0  0  0  0
    3.1544    6.1823    2.7880 H   0  0  0  0  0  0  0  0  0  0  0  0
    5.1834    4.7790    0.5802 H   0  0  0  0  0  0  0  0  0  0  0  0
    7.0919    5.4675    2.0303 H   0  0  0  0  0  0  0  0  0  0  0  0
    5.4870    9.4621    2.2535 H   0  0  0  0  0  0  0  0  0  0  0  0
    1.9501    5.2872   -2.8700 H   0  0  0  0  0  0  0  0  0  0  0  0
   -1.0775    7.0263    0.0766 H   0  0  0  0  0  0  0  0  0  0  0  0
   -3.2165    7.2491    1.2593 H   0  0  0  0  0  0  0  0  0  0  0  0
   -3.3414    6.9865    3.7353 H   0  0  0  0  0  0  0  0  0  0  0  0
   -1.2495    6.5449    5.0381 H   0  0  0  0  0  0  0  0  0  0  0  0
    0.5456    3.6636    3.3234 H   0  0  0  0  0  0  0  0  0  0  0  0
    0.3192    1.4514    4.5151 H   0  0  0  0  0  0  0  0  0  0  0  0
    2.0591    1.5085    4.8046 H   0  0  0  0  0  0  0  0  0  0  0  0
    2.0903    0.1178    3.0118 H   0  0  0  0  0  0  0  0  0  0  0  0
    2.1454    1.6304    2.0898 H   0  0  0  0  0  0  0  0  0  0  0  0
    1.0605   -0.1398    0.4404 H   0  0  0  0  0  0  0  0  0  0  0  0
   -0.7003   -0.2770    0.6182 H   0  0  0  0  0  0  0  0  0  0  0  0
   -0.4420   -1.8811    2.5083 H   0  0  0  0  0  0  0  0  0  0  0  0
    1.3133   -1.7045    2.4529 H   0  0  0  0  0  0  0  0  0  0  0  0
   -1.5642   -2.8800    0.6075 H   0  0  0  0  0  0  0  0  0  0  0  0
   -0.6641   -2.2852   -0.8164 H   0  0  0  0  0  0  0  0  0  0  0  0
    0.5178   -4.5428   -0.9017 H   0  0  0  0  0  0  0  0  0  0  0  0
   -0.5579   -5.1175    0.3778 H   0  0  0  0  0  0  0  0  0  0  0  0
   -1.1154   -4.9898   -2.4278 H   0  0  0  0  0  0  0  0  0  0  0  0
   -3.1164   -4.4280    0.6349 H   0  0  0  0  0  0  0  0  0  0  0  0
   -5.2309   -5.6514    1.0774 H   0  0  0  0  0  0  0  0  0  0  0  0
   -6.0177   -7.4356   -0.5120 H   0  0  0  0  0  0  0  0  0  0  0  0
   -4.6575   -8.3747   -5.3924 H   0  0  0  0  0  0  0  0  0  0  0  0
   -3.5517  -10.2906   -6.2192 H   0  0  0  0  0  0  0  0  0  0  0  0
   -3.4872  -10.4816   -4.4639 H   0  0  0  0  0  0  0  0  0  0  0  0
   -1.1326   -9.5770   -4.4562 H   0  0  0  0  0  0  0  0  0  0  0  0
   -1.2522  -10.9642   -5.5421 H   0  0  0  0  0  0  0  0  0  0  0  0
   -1.4197   -7.3171   -7.5934 H   0  0  0  0  0  0  0  0  0  0  0  0
  1  2  2  0  0  0  0
  2  3  1  0  0  0  0
  2 28  1  0  0  0  0
  3  4  1  0  0  0  0
  3 57  1  0  0  0  0
  3 58  1  0  0  0  0
  4  5  1  0  0  0  0
  4 27  1  0  0  0  0
  5  6  2  0  0  0  0
  5 59  1  0  0  0  0
  6  7  1  0  0  0  0
  6 22  1  0  0  0  0
  7  8  2  0  0  0  0
  7 20  1  0  0  0  0
  8  9  1  0  0  0  0
  8 17  1  0  0  0  0
  9 10  2  0  0  0  0
  9 15  1  0  0  0  0
 10 11  1  0  0  0  0
 10 60  1  0  0  0  0
 11 12  2  0  0  0  0
 11 61  1  0  0  0  0
 12 13  1  0  0  0  0
 12 14  1  0  0  0  0
 14 15  2  0  0  0  0
 14 62  1  0  0  0  0
 15 16  1  0  0  0  0
 17 18  2  0  0  0  0
 17 19  1  0  0  0  0
 19 20  1  0  0  0  0
 19 63  1  0  0  0  0
 20 21  2  0  0  0  0
 22 23  2  0  0  0  0
 22 27  1  0  0  0  0
 23 24  1  0  0  0  0
 23 64  1  0  0  0  0
 24 25  2  0  0  0  0
 24 65  1  0  0  0  0
 25 26  1  0  0  0  0
 25 66  1  0  0  0  0
 26 27  2  0  0  0  0
 26 67  1  0  0  0  0
 28 29  1  0  0  0  0
 28 68  1  0  0  0  0
 29 30  1  0  0  0  0
 29 69  1  0  0  0  0
 29 70  1  0  0  0  0
 30 31  1  0  0  0  0
 30 71  1  0  0  0  0
 30 72  1  0  0  0  0
 31 32  1  0  0  0  0
 32 33  1  0  0  0  0
 32 73  1  0  0  0  0
 32 74  1  0  0  0  0
 33 34  1  0  0  0  0
 33 75  1  0  0  0  0
 33 76  1  0  0  0  0
 34 35  1  0  0  0  0
 35 36  1  0  0  0  0
 35 77  1  0  0  0  0
 35 78  1  0  0  0  0
 36 37  1  0  0  0  0
 36 79  1  0  0  0  0
 36 80  1  0  0  0  0
 37 38  1  0  0  0  0
 37 81  1  0  0  0  0
 38 39  2  0  0  0  0
 38 43  1  0  0  0  0
 39 40  1  0  0  0  0
 39 82  1  0  0  0  0
 40 41  2  0  0  0  0
 40 83  1  0  0  0  0
 41 42  1  0  0  0  0
 41 84  1  0  0  0  0
 42 43  2  0  0  0  0
 42 55  1  0  0  0  0
 43 44  1  0  0  0  0
 44 45  2  0  0  0  0
 44 46  1  0  0  0  0
 46 47  1  0  0  0  0
 46 55  1  0  0  0  0
 47 48  1  0  0  0  0
 47 53  1  0  0  0  0
 47 85  1  0  0  0  0
 48 49  1  0  0  0  0
 48 86  1  0  0  0  0
 48 87  1  0  0  0  0
 49 50  1  0  0  0  0
 49 88  1  0  0  0  0
 49 89  1  0  0  0  0
 50 51  2  0  0  0  0
 50 52  1  0  0  0  0
 52 53  1  0  0  0  0
 52 90  1  0  0  0  0
 53 54  2  0  0  0  0
 55 56  2  0  0  0  0
M  END
$$$$
protac3895RUN2
  chem.cr 07102519423D
protac3895RUN2
 90 96  0  0  0  0  0  0  0  0999 V2000
    4.0130    3.8112    2.3306 O   0  0  0  0  0  0  0  0  0  0  0  0
    3.5425    3.3706    1.2943 C   0  0  0  0  0  0  0  0  0  0  0  0
    4.1542    3.6401   -0.0673 C   0  0  0  0  0  0  0  0  0  0  0  0
    3.3470    4.5232   -0.9370 N   0  0  0  0  0  0  0  0  0  0  0  0
    2.5861    5.5554   -0.3875 C   0  0  0  0  0  0  0  0  0  0  0  0
    1.4506    5.7763   -1.0944 C   0  0  0  0  0  0  0  0  0  0  0  0
    0.4479    6.6392   -0.7025 C   0  0  0  0  0  0  0  0  0  0  0  0
   -0.8121    6.8938   -1.1593 C   0  0  0  0  0  0  0  0  0  0  0  0
   -1.5185    6.2847   -2.1750 C   0  0  0  0  0  0  0  0  0  0  0  0
   -2.0024    4.9711   -2.0106 C   0  0  0  0  0  0  0  0  0  0  0  0
   -2.7753    4.3656   -3.0165 C   0  0  0  0  0  0  0  0  0  0  0  0
   -3.0812    5.0729   -4.1905 C   0  0  0  0  0  0  0  0  0  0  0  0
   -4.0568    4.3203   -5.4450 Cl  0  0  0  0  0  0  0  0  0  0  0  0
   -2.6196    6.3879   -4.3592 C   0  0  0  0  0  0  0  0  0  0  0  0
   -1.8529    6.9998   -3.3518 C   0  0  0  0  0  0  0  0  0  0  0  0
   -1.2670    8.6433   -3.6165 Cl  0  0  0  0  0  0  0  0  0  0  0  0
   -1.4305    7.8143   -0.4098 C   0  0  0  0  0  0  0  0  0  0  0  0
   -2.5592    8.2863   -0.4159 O   0  0  0  0  0  0  0  0  0  0  0  0
   -0.5622    8.2392    0.5708 N   0  0  0  0  0  0  0  0  0  0  0  0
    0.5684    7.4576    0.3797 C   0  0  0  0  0  0  0  0  0  0  0  0
    1.4548    7.6484    1.2064 O   0  0  0  0  0  0  0  0  0  0  0  0
    1.5508    4.9008   -2.2025 C   0  0  0  0  0  0  0  0  0  0  0  0
    0.8491    4.7847   -3.4208 C   0  0  0  0  0  0  0  0  0  0  0  0
    1.2117    3.7947   -4.3582 C   0  0  0  0  0  0  0  0  0  0  0  0
    2.3267    2.9619   -4.1408 C   0  0  0  0  0  0  0  0  0  0  0  0
    3.1112    3.1452   -2.9941 C   0  0  0  0  0  0  0  0  0  0  0  0
    2.7007    4.1092   -2.0630 C   0  0  0  0  0  0  0  0  0  0  0  0
    2.2511    2.8289    1.3828 N   0  0  0  0  0  0  0  0  0  0  0  0
    1.6167    1.9831    0.3573 C   0  0  0  0  0  0  0  0  0  0  0  0
    0.1458    2.3833    0.1092 C   0  0  0  0  0  0  0  0  0  0  0  0
   -0.3554    1.7221   -1.0718 O   0  0  0  0  0  0  0  0  0  0  0  0
   -0.2671    0.2880   -1.0923 C   0  0  0  0  0  0  0  0  0  0  0  0
   -1.0049   -0.2409   -2.3416 C   0  0  0  0  0  0  0  0  0  0  0  0
   -0.3264   -1.4113   -2.8572 O   0  0  0  0  0  0  0  0  0  0  0  0
   -0.0975   -2.5272   -1.9684 C   0  0  0  0  0  0  0  0  0  0  0  0
   -1.4224   -3.2512   -1.6519 C   0  0  0  0  0  0  0  0  0  0  0  0
   -1.2579   -4.0283   -0.4128 N   0  0  0  0  0  0  0  0  0  0  0  0
   -1.7315   -5.3098   -0.1545 C   0  0  0  0  0  0  0  0  0  0  0  0
   -2.5310   -6.0527   -1.0586 C   0  0  0  0  0  0  0  0  0  0  0  0
   -2.9613   -7.3645   -0.7423 C   0  0  0  0  0  0  0  0  0  0  0  0
   -2.6093   -7.9613    0.4847 C   0  0  0  0  0  0  0  0  0  0  0  0
   -1.8316   -7.2137    1.3764 C   0  0  0  0  0  0  0  0  0  0  0  0
   -1.4047   -5.9226    1.0638 C   0  0  0  0  0  0  0  0  0  0  0  0
   -0.6516   -5.4645    2.1211 C   0  0  0  0  0  0  0  0  0  0  0  0
    0.0455   -4.4563    2.1814 O   0  0  0  0  0  0  0  0  0  0  0  0
   -0.5704   -6.4801    3.0780 N   0  0  0  0  0  0  0  0  0  0  0  0
    0.0160   -6.3485    4.4259 C   0  0  0  0  0  0  0  0  0  0  0  0
    1.3245   -7.1696    4.5083 C   0  0  0  0  0  0  0  0  0  0  0  0
    1.8325   -7.2333    5.9621 C   0  0  0  0  0  0  0  0  0  0  0  0
    0.7663   -7.7765    6.8817 C   0  0  0  0  0  0  0  0  0  0  0  0
    1.0099   -8.4087    7.8972 O   0  0  0  0  0  0  0  0  0  0  0  0
   -0.5502   -7.3487    6.6919 N   0  0  0  0  0  0  0  0  0  0  0  0
   -0.9860   -6.7048    5.5248 C   0  0  0  0  0  0  0  0  0  0  0  0
   -2.1258   -6.2603    5.5618 O   0  0  0  0  0  0  0  0  0  0  0  0
   -1.3446   -7.5531    2.6176 C   0  0  0  0  0  0  0  0  0  0  0  0
   -1.2665   -8.6723    3.1101 O   0  0  0  0  0  0  0  0  0  0  0  0
    5.1316    4.1147    0.0779 H   0  0  0  0  0  0  0  0  0  0  0  0
    4.3266    2.6835   -0.5676 H   0  0  0  0  0  0  0  0  0  0  0  0
    2.9279    5.9775    0.5532 H   0  0  0  0  0  0  0  0  0  0  0  0
   -1.7764    4.4229   -1.1002 H   0  0  0  0  0  0  0  0  0  0  0  0
   -3.1435    3.3520   -2.8825 H   0  0  0  0  0  0  0  0  0  0  0  0
   -2.8562    6.9333   -5.2680 H   0  0  0  0  0  0  0  0  0  0  0  0
   -0.8493    8.5979    1.4684 H   0  0  0  0  0  0  0  0  0  0  0  0
    0.0681    5.4595   -3.7059 H   0  0  0  0  0  0  0  0  0  0  0  0
    0.6423    3.6978   -5.2777 H   0  0  0  0  0  0  0  0  0  0  0  0
    2.6052    2.2169   -4.8816 H   0  0  0  0  0  0  0  0  0  0  0  0
    4.0196    2.5698   -2.8500 H   0  0  0  0  0  0  0  0  0  0  0  0
    1.7911    2.9342    2.2788 H   0  0  0  0  0  0  0  0  0  0  0  0
    1.6665    0.9415    0.6960 H   0  0  0  0  0  0  0  0  0  0  0  0
    2.1571    2.0482   -0.5919 H   0  0  0  0  0  0  0  0  0  0  0  0
    0.0983    3.4702   -0.0361 H   0  0  0  0  0  0  0  0  0  0  0  0
   -0.4648    2.1363    0.9887 H   0  0  0  0  0  0  0  0  0  0  0  0
   -0.7158   -0.1482   -0.1909 H   0  0  0  0  0  0  0  0  0  0  0  0
    0.7844   -0.0218   -1.1532 H   0  0  0  0  0  0  0  0  0  0  0  0
   -1.0032    0.5429   -3.1105 H   0  0  0  0  0  0  0  0  0  0  0  0
   -2.0527   -0.4540   -2.0969 H   0  0  0  0  0  0  0  0  0  0  0  0
    0.5869   -3.2446   -2.4402 H   0  0  0  0  0  0  0  0  0  0  0  0
    0.3865   -2.2006   -1.0400 H   0  0  0  0  0  0  0  0  0  0  0  0
   -2.2413   -2.5340   -1.5199 H   0  0  0  0  0  0  0  0  0  0  0  0
   -1.6672   -3.8958   -2.5038 H   0  0  0  0  0  0  0  0  0  0  0  0
   -0.6879   -3.6241    0.3246 H   0  0  0  0  0  0  0  0  0  0  0  0
   -2.8296   -5.6266   -2.0098 H   0  0  0  0  0  0  0  0  0  0  0  0
   -3.5687   -7.9173   -1.4549 H   0  0  0  0  0  0  0  0  0  0  0  0
   -2.9298   -8.9688    0.7367 H   0  0  0  0  0  0  0  0  0  0  0  0
    0.2658   -5.2897    4.5775 H   0  0  0  0  0  0  0  0  0  0  0  0
    2.0852   -6.7330    3.8478 H   0  0  0  0  0  0  0  0  0  0  0  0
    1.1380   -8.1918    4.1500 H   0  0  0  0  0  0  0  0  0  0  0  0
    2.7217   -7.8733    6.0231 H   0  0  0  0  0  0  0  0  0  0  0  0
    2.1301   -6.2365    6.3091 H   0  0  0  0  0  0  0  0  0  0  0  0
   -1.2373   -7.5795    7.3945 H   0  0  0  0  0  0  0  0  0  0  0  0
  1  2  2  0  0  0  0
  2  3  1  0  0  0  0
  2 28  1  0  0  0  0
  3  4  1  0  0  0  0
  3 57  1  0  0  0  0
  3 58  1  0  0  0  0
  4  5  1  0  0  0  0
  4 27  1  0  0  0  0
  5  6  2  0  0  0  0
  5 59  1  0  0  0  0
  6  7  1  0  0  0  0
  6 22  1  0  0  0  0
  7  8  2  0  0  0  0
  7 20  1  0  0  0  0
  8  9  1  0  0  0  0
  8 17  1  0  0  0  0
  9 10  2  0  0  0  0
  9 15  1  0  0  0  0
 10 11  1  0  0  0  0
 10 60  1  0  0  0  0
 11 12  2  0  0  0  0
 11 61  1  0  0  0  0
 12 13  1  0  0  0  0
 12 14  1  0  0  0  0
 14 15  2  0  0  0  0
 14 62  1  0  0  0  0
 15 16  1  0  0  0  0
 17 18  2  0  0  0  0
 17 19  1  0  0  0  0
 19 20  1  0  0  0  0
 19 63  1  0  0  0  0
 20 21  2  0  0  0  0
 22 23  2  0  0  0  0
 22 27  1  0  0  0  0
 23 24  1  0  0  0  0
 23 64  1  0  0  0  0
 24 25  2  0  0  0  0
 24 65  1  0  0  0  0
 25 26  1  0  0  0  0
 25 66  1  0  0  0  0
 26 27  2  0  0  0  0
 26 67  1  0  0  0  0
 28 29  1  0  0  0  0
 28 68  1  0  0  0  0
 29 30  1  0  0  0  0
 29 69  1  0  0  0  0
 29 70  1  0  0  0  0
 30 31  1  0  0  0  0
 30 71  1  0  0  0  0
 30 72  1  0  0  0  0
 31 32  1  0  0  0  0
 32 33  1  0  0  0  0
 32 73  1  0  0  0  0
 32 74  1  0  0  0  0
 33 34  1  0  0  0  0
 33 75  1  0  0  0  0
 33 76  1  0  0  0  0
 34 35  1  0  0  0  0
 35 36  1  0  0  0  0
 35 77  1  0  0  0  0
 35 78  1  0  0  0  0
 36 37  1  0  0  0  0
 36 79  1  0  0  0  0
 36 80  1  0  0  0  0
 37 38  1  0  0  0  0
 37 81  1  0  0  0  0
 38 39  2  0  0  0  0
 38 43  1  0  0  0  0
 39 40  1  0  0  0  0
 39 82  1  0  0  0  0
 40 41  2  0  0  0  0
 40 83  1  0  0  0  0
 41 42  1  0  0  0  0
 41 84  1  0  0  0  0
 42 43  2  0  0  0  0
 42 55  1  0  0  0  0
 43 44  1  0  0  0  0
 44 45  2  0  0  0  0
 44 46  1  0  0  0  0
 46 47  1  0  0  0  0
 46 55  1  0  0  0  0
 47 48  1  0  0  0  0
 47 53  1  0  0  0  0
 47 85  1  0  0  0  0
 48 49  1  0  0  0  0
 48 86  1  0  0  0  0
 48 87  1  0  0  0  0
 49 50  1  0  0  0  0
 49 88  1  0  0  0  0
 49 89  1  0  0  0  0
 50 51  2  0  0  0  0
 50 52  1  0  0  0  0
 52 53  1  0  0  0  0
 52 90  1  0  0  0  0
 53 54  2  0  0  0  0
 55 56  2  0  0  0  0
M  END
$$$$
protac3895RUN2
  chem.cr 07102519423D
protac3895RUN2
 90 96  0  0  0  0  0  0  0  0999 V2000
   -3.9200    0.4013    0.8624 O   0  0  0  0  0  0  0  0  0  0  0  0
   -2.8962    1.0534    0.7159 C   0  0  0  0  0  0  0  0  0  0  0  0
   -1.7277    0.9640    1.6724 C   0  0  0  0  0  0  0  0  0  0  0  0
   -0.4114    1.2194    1.0596 N   0  0  0  0  0  0  0  0  0  0  0  0
    0.2579    2.4518    1.0842 C   0  0  0  0  0  0  0  0  0  0  0  0
    1.2944    2.4163    0.2150 C   0  0  0  0  0  0  0  0  0  0  0  0
    2.0118    3.4858   -0.2514 C   0  0  0  0  0  0  0  0  0  0  0  0
    2.7949    3.6121   -1.3539 C   0  0  0  0  0  0  0  0  0  0  0  0
    2.9493    2.6914   -2.3751 C   0  0  0  0  0  0  0  0  0  0  0  0
    1.8032    2.2424   -3.0651 C   0  0  0  0  0  0  0  0  0  0  0  0
    1.9063    1.2533   -4.0568 C   0  0  0  0  0  0  0  0  0  0  0  0
    3.1621    0.7260   -4.3882 C   0  0  0  0  0  0  0  0  0  0  0  0
    3.2871   -0.5431   -5.5995 Cl  0  0  0  0  0  0  0  0  0  0  0  0
    4.3169    1.2021   -3.7487 C   0  0  0  0  0  0  0  0  0  0  0  0
    4.2183    2.1873   -2.7491 C   0  0  0  0  0  0  0  0  0  0  0  0
    5.6862    2.6732   -1.8989 Cl  0  0  0  0  0  0  0  0  0  0  0  0
    3.2502    4.8642   -1.4753 C   0  0  0  0  0  0  0  0  0  0  0  0
    3.8715    5.4505   -2.3499 O   0  0  0  0  0  0  0  0  0  0  0  0
    2.8012    5.6006   -0.3903 N   0  0  0  0  0  0  0  0  0  0  0  0
    1.9794    4.7161    0.3044 C   0  0  0  0  0  0  0  0  0  0  0  0
    1.3836    5.1797    1.2723 O   0  0  0  0  0  0  0  0  0  0  0  0
    1.3853    1.0845   -0.2023 C   0  0  0  0  0  0  0  0  0  0  0  0
    2.4630    0.3443   -0.7174 C   0  0  0  0  0  0  0  0  0  0  0  0
    2.2732   -1.0121   -1.0462 C   0  0  0  0  0  0  0  0  0  0  0  0
    1.0400   -1.6455   -0.7883 C   0  0  0  0  0  0  0  0  0  0  0  0
    0.0252   -0.9457   -0.1051 C   0  0  0  0  0  0  0  0  0  0  0  0
    0.2647    0.3850    0.2208 C   0  0  0  0  0  0  0  0  0  0  0  0
   -3.0290    2.2373   -0.0164 N   0  0  0  0  0  0  0  0  0  0  0  0
   -2.2744    2.4342   -1.2623 C   0  0  0  0  0  0  0  0  0  0  0  0
   -3.1531    2.1336   -2.4952 C   0  0  0  0  0  0  0  0  0  0  0  0
   -2.3677    1.4803   -3.5140 O   0  0  0  0  0  0  0  0  0  0  0  0
   -1.9782    0.1050   -3.2955 C   0  0  0  0  0  0  0  0  0  0  0  0
   -3.2385   -0.7953   -3.2219 C   0  0  0  0  0  0  0  0  0  0  0  0
   -2.8616   -2.1766   -3.4236 O   0  0  0  0  0  0  0  0  0  0  0  0
   -2.1391   -2.8359   -2.3667 C   0  0  0  0  0  0  0  0  0  0  0  0
   -3.1177   -3.2074   -1.2283 C   0  0  0  0  0  0  0  0  0  0  0  0
   -2.3847   -3.7130   -0.0520 N   0  0  0  0  0  0  0  0  0  0  0  0
   -2.7168   -3.3463    1.2508 C   0  0  0  0  0  0  0  0  0  0  0  0
   -4.0485   -3.0889    1.6505 C   0  0  0  0  0  0  0  0  0  0  0  0
   -4.3411   -2.6106    2.9530 C   0  0  0  0  0  0  0  0  0  0  0  0
   -3.3053   -2.3678    3.8784 C   0  0  0  0  0  0  0  0  0  0  0  0
   -1.9926   -2.6292    3.4722 C   0  0  0  0  0  0  0  0  0  0  0  0
   -1.7128   -3.1338    2.2059 C   0  0  0  0  0  0  0  0  0  0  0  0
   -0.3487   -3.2229    2.0992 C   0  0  0  0  0  0  0  0  0  0  0  0
    0.3103   -3.8107    1.2512 O   0  0  0  0  0  0  0  0  0  0  0  0
    0.2445   -2.6363    3.2200 N   0  0  0  0  0  0  0  0  0  0  0  0
    1.4028   -1.7296    3.0351 C   0  0  0  0  0  0  0  0  0  0  0  0
    2.7121   -2.4380    3.4104 C   0  0  0  0  0  0  0  0  0  0  0  0
    3.8970   -1.5458    2.9759 C   0  0  0  0  0  0  0  0  0  0  0  0
    3.7637   -0.1147    3.4577 C   0  0  0  0  0  0  0  0  0  0  0  0
    4.7014    0.6694    3.4817 O   0  0  0  0  0  0  0  0  0  0  0  0
    2.4906    0.4195    3.6949 N   0  0  0  0  0  0  0  0  0  0  0  0
    1.3272   -0.3619    3.7128 C   0  0  0  0  0  0  0  0  0  0  0  0
    0.2975    0.2625    3.9361 O   0  0  0  0  0  0  0  0  0  0  0  0
   -0.8029   -2.3699    4.1127 C   0  0  0  0  0  0  0  0  0  0  0  0
   -0.6100   -2.3009    5.3215 O   0  0  0  0  0  0  0  0  0  0  0  0
   -1.8775    1.6675    2.4996 H   0  0  0  0  0  0  0  0  0  0  0  0
   -1.7154   -0.0410    2.1131 H   0  0  0  0  0  0  0  0  0  0  0  0
   -0.1931    3.2880    1.6118 H   0  0  0  0  0  0  0  0  0  0  0  0
    0.8251    2.6383   -2.8078 H   0  0  0  0  0  0  0  0  0  0  0  0
    1.0166    0.8890   -4.5621 H   0  0  0  0  0  0  0  0  0  0  0  0
    5.2895    0.7964   -4.0134 H   0  0  0  0  0  0  0  0  0  0  0  0
    2.6534    6.5961   -0.4143 H   0  0  0  0  0  0  0  0  0  0  0  0
    3.4391    0.7942   -0.8306 H   0  0  0  0  0  0  0  0  0  0  0  0
    3.0850   -1.5715   -1.4999 H   0  0  0  0  0  0  0  0  0  0  0  0
    0.9069   -2.6911   -1.0527 H   0  0  0  0  0  0  0  0  0  0  0  0
   -0.8979   -1.4255    0.1960 H   0  0  0  0  0  0  0  0  0  0  0  0
   -3.9401    2.6773    0.0391 H   0  0  0  0  0  0  0  0  0  0  0  0
   -1.3892    1.7909   -1.2712 H   0  0  0  0  0  0  0  0  0  0  0  0
   -1.9138    3.4699   -1.3102 H   0  0  0  0  0  0  0  0  0  0  0  0
   -3.5596    3.0786   -2.8778 H   0  0  0  0  0  0  0  0  0  0  0  0
   -4.0141    1.5195   -2.2076 H   0  0  0  0  0  0  0  0  0  0  0  0
   -1.3791   -0.0001   -2.3831 H   0  0  0  0  0  0  0  0  0  0  0  0
   -1.3596   -0.2322   -4.1373 H   0  0  0  0  0  0  0  0  0  0  0  0
   -3.9281   -0.4893   -4.0180 H   0  0  0  0  0  0  0  0  0  0  0  0
   -3.7453   -0.6524   -2.2610 H   0  0  0  0  0  0  0  0  0  0  0  0
   -1.6686   -3.7475   -2.7560 H   0  0  0  0  0  0  0  0  0  0  0  0
   -1.3395   -2.1935   -1.9904 H   0  0  0  0  0  0  0  0  0  0  0  0
   -3.7002   -2.3213   -0.9485 H   0  0  0  0  0  0  0  0  0  0  0  0
   -3.8193   -3.9696   -1.5919 H   0  0  0  0  0  0  0  0  0  0  0  0
   -1.4209   -3.9968   -0.1898 H   0  0  0  0  0  0  0  0  0  0  0  0
   -4.8642   -3.2388    0.9487 H   0  0  0  0  0  0  0  0  0  0  0  0
   -5.3718   -2.4014    3.2314 H   0  0  0  0  0  0  0  0  0  0  0  0
   -3.5078   -1.9580    4.8640 H   0  0  0  0  0  0  0  0  0  0  0  0
    1.4625   -1.5082    1.9646 H   0  0  0  0  0  0  0  0  0  0  0  0
    2.7656   -3.4181    2.9198 H   0  0  0  0  0  0  0  0  0  0  0  0
    2.7328   -2.6141    4.4948 H   0  0  0  0  0  0  0  0  0  0  0  0
    4.8423   -1.9637    3.3444 H   0  0  0  0  0  0  0  0  0  0  0  0
    3.9668   -1.5340    1.8807 H   0  0  0  0  0  0  0  0  0  0  0  0
    2.4182    1.3999    3.9243 H   0  0  0  0  0  0  0  0  0  0  0  0
  1  2  2  0  0  0  0
  2  3  1  0  0  0  0
  2 28  1  0  0  0  0
  3  4  1  0  0  0  0
  3 57  1  0  0  0  0
  3 58  1  0  0  0  0
  4  5  1  0  0  0  0
  4 27  1  0  0  0  0
  5  6  2  0  0  0  0
  5 59  1  0  0  0  0
  6  7  1  0  0  0  0
  6 22  1  0  0  0  0
  7  8  2  0  0  0  0
  7 20  1  0  0  0  0
  8  9  1  0  0  0  0
  8 17  1  0  0  0  0
  9 10  2  0  0  0  0
  9 15  1  0  0  0  0
 10 11  1  0  0  0  0
 10 60  1  0  0  0  0
 11 12  2  0  0  0  0
 11 61  1  0  0  0  0
 12 13  1  0  0  0  0
 12 14  1  0  0  0  0
 14 15  2  0  0  0  0
 14 62  1  0  0  0  0
 15 16  1  0  0  0  0
 17 18  2  0  0  0  0
 17 19  1  0  0  0  0
 19 20  1  0  0  0  0
 19 63  1  0  0  0  0
 20 21  2  0  0  0  0
 22 23  2  0  0  0  0
 22 27  1  0  0  0  0
 23 24  1  0  0  0  0
 23 64  1  0  0  0  0
 24 25  2  0  0  0  0
 24 65  1  0  0  0  0
 25 26  1  0  0  0  0
 25 66  1  0  0  0  0
 26 27  2  0  0  0  0
 26 67  1  0  0  0  0
 28 29  1  0  0  0  0
 28 68  1  0  0  0  0
 29 30  1  0  0  0  0
 29 69  1  0  0  0  0
 29 70  1  0  0  0  0
 30 31  1  0  0  0  0
 30 71  1  0  0  0  0
 30 72  1  0  0  0  0
 31 32  1  0  0  0  0
 32 33  1  0  0  0  0
 32 73  1  0  0  0  0
 32 74  1  0  0  0  0
 33 34  1  0  0  0  0
 33 75  1  0  0  0  0
 33 76  1  0  0  0  0
 34 35  1  0  0  0  0
 35 36  1  0  0  0  0
 35 77  1  0  0  0  0
 35 78  1  0  0  0  0
 36 37  1  0  0  0  0
 36 79  1  0  0  0  0
 36 80  1  0  0  0  0
 37 38  1  0  0  0  0
 37 81  1  0  0  0  0
 38 39  2  0  0  0  0
 38 43  1  0  0  0  0
 39 40  1  0  0  0  0
 39 82  1  0  0  0  0
 40 41  2  0  0  0  0
 40 83  1  0  0  0  0
 41 42  1  0  0  0  0
 41 84  1  0  0  0  0
 42 43  2  0  0  0  0
 42 55  1  0  0  0  0
 43 44  1  0  0  0  0
 44 45  2  0  0  0  0
 44 46  1  0  0  0  0
 46 47  1  0  0  0  0
 46 55  1  0  0  0  0
 47 48  1  0  0  0  0
 47 53  1  0  0  0  0
 47 85  1  0  0  0  0
 48 49  1  0  0  0  0
 48 86  1  0  0  0  0
 48 87  1  0  0  0  0
 49 50  1  0  0  0  0
 49 88  1  0  0  0  0
 49 89  1  0  0  0  0
 50 51  2  0  0  0  0
 50 52  1  0  0  0  0
 52 53  1  0  0  0  0
 52 90  1  0  0  0  0
 53 54  2  0  0  0  0
 55 56  2  0  0  0  0
M  END
$$$$
protac3895RUN2
  chem.cr 07102519423D
protac3895RUN2
 90 96  0  0  0  0  0  0  0  0999 V2000
    4.4277    2.1318    0.6602 O   0  0  0  0  0  0  0  0  0  0  0  0
    4.2981    1.8331   -0.5187 C   0  0  0  0  0  0  0  0  0  0  0  0
    5.4349    1.9089   -1.5094 C   0  0  0  0  0  0  0  0  0  0  0  0
    5.0442    2.1747   -2.9114 N   0  0  0  0  0  0  0  0  0  0  0  0
    4.8952    3.5107   -3.3015 C   0  0  0  0  0  0  0  0  0  0  0  0
    5.3843    3.7371   -4.5449 C   0  0  0  0  0  0  0  0  0  0  0  0
    5.2563    4.9170   -5.2455 C   0  0  0  0  0  0  0  0  0  0  0  0
    5.5136    5.2711   -6.5361 C   0  0  0  0  0  0  0  0  0  0  0  0
    5.9431    4.4888   -7.5871 C   0  0  0  0  0  0  0  0  0  0  0  0
    5.1078    3.4765   -8.0995 C   0  0  0  0  0  0  0  0  0  0  0  0
    5.5164    2.7083   -9.2044 C   0  0  0  0  0  0  0  0  0  0  0  0
    6.7585    2.9553   -9.8095 C   0  0  0  0  0  0  0  0  0  0  0  0
    7.2695    1.9977  -11.1917 Cl  0  0  0  0  0  0  0  0  0  0  0  0
    7.5947    3.9671   -9.3149 C   0  0  0  0  0  0  0  0  0  0  0  0
    7.1887    4.7398   -8.2144 C   0  0  0  0  0  0  0  0  0  0  0  0
    8.2935    5.9694   -7.5956 Cl  0  0  0  0  0  0  0  0  0  0  0  0
    5.1761    6.5450   -6.7716 C   0  0  0  0  0  0  0  0  0  0  0  0
    5.1651    7.2408   -7.7787 O   0  0  0  0  0  0  0  0  0  0  0  0
    4.7248    7.1047   -5.5965 N   0  0  0  0  0  0  0  0  0  0  0  0
    4.7424    6.0495   -4.6922 C   0  0  0  0  0  0  0  0  0  0  0  0
    4.3094    6.3212   -3.5795 O   0  0  0  0  0  0  0  0  0  0  0  0
    5.9537    2.5032   -4.9256 C   0  0  0  0  0  0  0  0  0  0  0  0
    6.8797    2.1368   -5.9245 C   0  0  0  0  0  0  0  0  0  0  0  0
    7.2880    0.7912   -6.0492 C   0  0  0  0  0  0  0  0  0  0  0  0
    6.8540   -0.1832   -5.1288 C   0  0  0  0  0  0  0  0  0  0  0  0
    6.0585    0.1990   -4.0370 C   0  0  0  0  0  0  0  0  0  0  0  0
    5.6577    1.5401   -3.9540 C   0  0  0  0  0  0  0  0  0  0  0  0
    3.0805    1.2820   -0.9491 N   0  0  0  0  0  0  0  0  0  0  0  0
    1.8491    1.3717   -0.1455 C   0  0  0  0  0  0  0  0  0  0  0  0
    1.6345    0.1351    0.7470 C   0  0  0  0  0  0  0  0  0  0  0  0
    0.9961   -0.8769   -0.0502 O   0  0  0  0  0  0  0  0  0  0  0  0
    0.6416   -2.0994    0.6256 C   0  0  0  0  0  0  0  0  0  0  0  0
   -0.4666   -1.8131    1.6628 C   0  0  0  0  0  0  0  0  0  0  0  0
   -1.0652   -3.0625    2.0331 O   0  0  0  0  0  0  0  0  0  0  0  0
   -2.0714   -2.9547    3.0462 C   0  0  0  0  0  0  0  0  0  0  0  0
   -2.7160   -4.3392    3.2236 C   0  0  0  0  0  0  0  0  0  0  0  0
   -3.7271   -4.2705    4.2899 N   0  0  0  0  0  0  0  0  0  0  0  0
   -4.9911   -4.8418    4.2218 C   0  0  0  0  0  0  0  0  0  0  0  0
   -5.2909   -5.9678    3.4181 C   0  0  0  0  0  0  0  0  0  0  0  0
   -6.6070   -6.4971    3.3673 C   0  0  0  0  0  0  0  0  0  0  0  0
   -7.6493   -5.9101    4.1157 C   0  0  0  0  0  0  0  0  0  0  0  0
   -7.3348   -4.8041    4.9118 C   0  0  0  0  0  0  0  0  0  0  0  0
   -6.0377   -4.2926    4.9715 C   0  0  0  0  0  0  0  0  0  0  0  0
   -6.0469   -3.2203    5.8312 C   0  0  0  0  0  0  0  0  0  0  0  0
   -5.0936   -2.5903    6.2772 O   0  0  0  0  0  0  0  0  0  0  0  0
   -7.3378   -3.0697    6.3400 N   0  0  0  0  0  0  0  0  0  0  0  0
   -7.8195   -1.8848    7.0728 C   0  0  0  0  0  0  0  0  0  0  0  0
   -8.3601   -2.2932    8.4572 C   0  0  0  0  0  0  0  0  0  0  0  0
   -8.8688   -1.0406    9.1990 C   0  0  0  0  0  0  0  0  0  0  0  0
   -9.8673   -0.2623    8.3694 C   0  0  0  0  0  0  0  0  0  0  0  0
  -10.6712    0.5164    8.8573 O   0  0  0  0  0  0  0  0  0  0  0  0
   -9.7007   -0.2141    6.9792 N   0  0  0  0  0  0  0  0  0  0  0  0
   -8.8452   -1.0801    6.2822 C   0  0  0  0  0  0  0  0  0  0  0  0
   -8.7842   -0.9078    5.0723 O   0  0  0  0  0  0  0  0  0  0  0  0
   -8.1375   -4.0435    5.7293 C   0  0  0  0  0  0  0  0  0  0  0  0
   -9.3016   -4.2487    6.0515 O   0  0  0  0  0  0  0  0  0  0  0  0
    6.1083    2.7107   -1.1828 H   0  0  0  0  0  0  0  0  0  0  0  0
    6.0096    0.9779   -1.4541 H   0  0  0  0  0  0  0  0  0  0  0  0
    4.3537    4.1685   -2.6274 H   0  0  0  0  0  0  0  0  0  0  0  0
    4.1450    3.2866   -7.6345 H   0  0  0  0  0  0  0  0  0  0  0  0
    4.8689    1.9272   -9.5921 H   0  0  0  0  0  0  0  0  0  0  0  0
    8.5574    4.1545   -9.7818 H   0  0  0  0  0  0  0  0  0  0  0  0
    4.0853    7.8832   -5.5479 H   0  0  0  0  0  0  0  0  0  0  0  0
    7.3431    2.8598   -6.5709 H   0  0  0  0  0  0  0  0  0  0  0  0
    7.9692    0.5118   -6.8496 H   0  0  0  0  0  0  0  0  0  0  0  0
    7.1830   -1.2141   -5.2331 H   0  0  0  0  0  0  0  0  0  0  0  0
    5.7824   -0.5192   -3.2707 H   0  0  0  0  0  0  0  0  0  0  0  0
    3.0377    0.8797   -1.8777 H   0  0  0  0  0  0  0  0  0  0  0  0
    0.9841    1.4987   -0.8096 H   0  0  0  0  0  0  0  0  0  0  0  0
    1.9056    2.2640    0.4945 H   0  0  0  0  0  0  0  0  0  0  0  0
    0.9989    0.4266    1.5916 H   0  0  0  0  0  0  0  0  0  0  0  0
    2.5966   -0.2138    1.1441 H   0  0  0  0  0  0  0  0  0  0  0  0
    1.5142   -2.5440    1.1219 H   0  0  0  0  0  0  0  0  0  0  0  0
    0.2621   -2.8244   -0.1049 H   0  0  0  0  0  0  0  0  0  0  0  0
   -1.2197   -1.1483    1.2191 H   0  0  0  0  0  0  0  0  0  0  0  0
   -0.0343   -1.3181    2.5425 H   0  0  0  0  0  0  0  0  0  0  0  0
   -1.6287   -2.6244    3.9957 H   0  0  0  0  0  0  0  0  0  0  0  0
   -2.8437   -2.2308    2.7515 H   0  0  0  0  0  0  0  0  0  0  0  0
   -3.1745   -4.6373    2.2712 H   0  0  0  0  0  0  0  0  0  0  0  0
   -1.9451   -5.0768    3.4832 H   0  0  0  0  0  0  0  0  0  0  0  0
   -3.6374   -3.5255    4.9754 H   0  0  0  0  0  0  0  0  0  0  0  0
   -4.5083   -6.4432    2.8363 H   0  0  0  0  0  0  0  0  0  0  0  0
   -6.8199   -7.3615    2.7440 H   0  0  0  0  0  0  0  0  0  0  0  0
   -8.6655   -6.2963    4.0789 H   0  0  0  0  0  0  0  0  0  0  0  0
   -6.9617   -1.2177    7.2282 H   0  0  0  0  0  0  0  0  0  0  0  0
   -7.5767   -2.8023    9.0341 H   0  0  0  0  0  0  0  0  0  0  0  0
   -9.1865   -3.0076    8.3357 H   0  0  0  0  0  0  0  0  0  0  0  0
   -9.3344   -1.3300   10.1496 H   0  0  0  0  0  0  0  0  0  0  0  0
   -8.0273   -0.3816    9.4477 H   0  0  0  0  0  0  0  0  0  0  0  0
  -10.2877    0.4102    6.4441 H   0  0  0  0  0  0  0  0  0  0  0  0
  1  2  2  0  0  0  0
  2  3  1  0  0  0  0
  2 28  1  0  0  0  0
  3  4  1  0  0  0  0
  3 57  1  0  0  0  0
  3 58  1  0  0  0  0
  4  5  1  0  0  0  0
  4 27  1  0  0  0  0
  5  6  2  0  0  0  0
  5 59  1  0  0  0  0
  6  7  1  0  0  0  0
  6 22  1  0  0  0  0
  7  8  2  0  0  0  0
  7 20  1  0  0  0  0
  8  9  1  0  0  0  0
  8 17  1  0  0  0  0
  9 10  2  0  0  0  0
  9 15  1  0  0  0  0
 10 11  1  0  0  0  0
 10 60  1  0  0  0  0
 11 12  2  0  0  0  0
 11 61  1  0  0  0  0
 12 13  1  0  0  0  0
 12 14  1  0  0  0  0
 14 15  2  0  0  0  0
 14 62  1  0  0  0  0
 15 16  1  0  0  0  0
 17 18  2  0  0  0  0
 17 19  1  0  0  0  0
 19 20  1  0  0  0  0
 19 63  1  0  0  0  0
 20 21  2  0  0  0  0
 22 23  2  0  0  0  0
 22 27  1  0  0  0  0
 23 24  1  0  0  0  0
 23 64  1  0  0  0  0
 24 25  2  0  0  0  0
 24 65  1  0  0  0  0
 25 26  1  0  0  0  0
 25 66  1  0  0  0  0
 26 27  2  0  0  0  0
 26 67  1  0  0  0  0
 28 29  1  0  0  0  0
 28 68  1  0  0  0  0
 29 30  1  0  0  0  0
 29 69  1  0  0  0  0
 29 70  1  0  0  0  0
 30 31  1  0  0  0  0
 30 71  1  0  0  0  0
 30 72  1  0  0  0  0
 31 32  1  0  0  0  0
 32 33  1  0  0  0  0
 32 73  1  0  0  0  0
 32 74  1  0  0  0  0
 33 34  1  0  0  0  0
 33 75  1  0  0  0  0
 33 76  1  0  0  0  0
 34 35  1  0  0  0  0
 35 36  1  0  0  0  0
 35 77  1  0  0  0  0
 35 78  1  0  0  0  0
 36 37  1  0  0  0  0
 36 79  1  0  0  0  0
 36 80  1  0  0  0  0
 37 38  1  0  0  0  0
 37 81  1  0  0  0  0
 38 39  2  0  0  0  0
 38 43  1  0  0  0  0
 39 40  1  0  0  0  0
 39 82  1  0  0  0  0
 40 41  2  0  0  0  0
 40 83  1  0  0  0  0
 41 42  1  0  0  0  0
 41 84  1  0  0  0  0
 42 43  2  0  0  0  0
 42 55  1  0  0  0  0
 43 44  1  0  0  0  0
 44 45  2  0  0  0  0
 44 46  1  0  0  0  0
 46 47  1  0  0  0  0
 46 55  1  0  0  0  0
 47 48  1  0  0  0  0
 47 53  1  0  0  0  0
 47 85  1  0  0  0  0
 48 49  1  0  0  0  0
 48 86  1  0  0  0  0
 48 87  1  0  0  0  0
 49 50  1  0  0  0  0
 49 88  1  0  0  0  0
 49 89  1  0  0  0  0
 50 51  2  0  0  0  0
 50 52  1  0  0  0  0
 52 53  1  0  0  0  0
 52 90  1  0  0  0  0
 53 54  2  0  0  0  0
 55 56  2  0  0  0  0
M  END
$$$$
protac3895RUN2
  chem.cr 07102519423D
protac3895RUN2
 90 96  0  0  0  0  0  0  0  0999 V2000
    4.5603    2.0034    1.9533 O   0  0  0  0  0  0  0  0  0  0  0  0
    4.2458    1.0865    1.2076 C   0  0  0  0  0  0  0  0  0  0  0  0
    3.4415    1.2935   -0.0575 C   0  0  0  0  0  0  0  0  0  0  0  0
    3.6838    0.2891   -1.1144 N   0  0  0  0  0  0  0  0  0  0  0  0
    2.8377   -0.8122   -1.2927 C   0  0  0  0  0  0  0  0  0  0  0  0
    3.4886   -1.8273   -1.9091 C   0  0  0  0  0  0  0  0  0  0  0  0
    2.9521   -2.9918   -2.3928 C   0  0  0  0  0  0  0  0  0  0  0  0
    1.7037   -3.4618   -2.1486 C   0  0  0  0  0  0  0  0  0  0  0  0
    0.7581   -2.8978   -1.3132 C   0  0  0  0  0  0  0  0  0  0  0  0
   -0.3627   -2.2548   -1.8724 C   0  0  0  0  0  0  0  0  0  0  0  0
   -1.3313   -1.6637   -1.0434 C   0  0  0  0  0  0  0  0  0  0  0  0
   -1.1904   -1.7241    0.3520 C   0  0  0  0  0  0  0  0  0  0  0  0
   -2.4201   -1.0117    1.3850 Cl  0  0  0  0  0  0  0  0  0  0  0  0
   -0.0848   -2.3776    0.9225 C   0  0  0  0  0  0  0  0  0  0  0  0
    0.8886   -2.9628    0.0931 C   0  0  0  0  0  0  0  0  0  0  0  0
    2.2635   -3.7847    0.8321 Cl  0  0  0  0  0  0  0  0  0  0  0  0
    1.4565   -4.5920   -2.8124 C   0  0  0  0  0  0  0  0  0  0  0  0
    0.4766   -5.3200   -2.8986 O   0  0  0  0  0  0  0  0  0  0  0  0
    2.5937   -4.9314   -3.5183 N   0  0  0  0  0  0  0  0  0  0  0  0
    3.4848   -3.8907   -3.2651 C   0  0  0  0  0  0  0  0  0  0  0  0
    4.5018   -3.9263   -3.9408 O   0  0  0  0  0  0  0  0  0  0  0  0
    4.8261   -1.3967   -2.0067 C   0  0  0  0  0  0  0  0  0  0  0  0
    6.0280   -2.1002   -2.2484 C   0  0  0  0  0  0  0  0  0  0  0  0
    7.2586   -1.4096   -2.1862 C   0  0  0  0  0  0  0  0  0  0  0  0
    7.3098   -0.0472   -1.8246 C   0  0  0  0  0  0  0  0  0  0  0  0
    6.1287    0.6291   -1.4767 C   0  0  0  0  0  0  0  0  0  0  0  0
    4.9218   -0.0755   -1.5621 C   0  0  0  0  0  0  0  0  0  0  0  0
    4.4534   -0.2424    1.6132 N   0  0  0  0  0  0  0  0  0  0  0  0
    4.9290   -0.6411    2.9513 C   0  0  0  0  0  0  0  0  0  0  0  0
    3.9946   -1.6817    3.6151 C   0  0  0  0  0  0  0  0  0  0  0  0
    3.0274   -1.0288    4.4589 O   0  0  0  0  0  0  0  0  0  0  0  0
    2.1118   -0.1206    3.8250 C   0  0  0  0  0  0  0  0  0  0  0  0
    1.0956    0.3261    4.8933 C   0  0  0  0  0  0  0  0  0  0  0  0
    0.4367    1.5292    4.4615 O   0  0  0  0  0  0  0  0  0  0  0  0
   -0.4187    1.4237    3.3184 C   0  0  0  0  0  0  0  0  0  0  0  0
   -1.0521    2.8141    3.1293 C   0  0  0  0  0  0  0  0  0  0  0  0
   -2.0936    2.7923    2.0886 N   0  0  0  0  0  0  0  0  0  0  0  0
   -3.3536    2.2176    2.2229 C   0  0  0  0  0  0  0  0  0  0  0  0
   -3.8624    1.7469    3.4586 C   0  0  0  0  0  0  0  0  0  0  0  0
   -5.1459    1.1516    3.5419 C   0  0  0  0  0  0  0  0  0  0  0  0
   -5.9440    1.0031    2.3896 C   0  0  0  0  0  0  0  0  0  0  0  0
   -5.4311    1.4698    1.1751 C   0  0  0  0  0  0  0  0  0  0  0  0
   -4.1745    2.0714    1.0963 C   0  0  0  0  0  0  0  0  0  0  0  0
   -3.9598    2.4296   -0.2145 C   0  0  0  0  0  0  0  0  0  0  0  0
   -3.0349    3.0821   -0.6860 O   0  0  0  0  0  0  0  0  0  0  0  0
   -5.0921    2.0913   -0.9598 N   0  0  0  0  0  0  0  0  0  0  0  0
   -5.1845    2.1395   -2.4327 C   0  0  0  0  0  0  0  0  0  0  0  0
   -6.4045    2.9728   -2.8802 C   0  0  0  0  0  0  0  0  0  0  0  0
   -6.5073    2.9762   -4.4201 C   0  0  0  0  0  0  0  0  0  0  0  0
   -6.4715    1.5759   -4.9906 C   0  0  0  0  0  0  0  0  0  0  0  0
   -6.9463    1.2834   -6.0759 O   0  0  0  0  0  0  0  0  0  0  0  0
   -5.7021    0.5973   -4.3512 N   0  0  0  0  0  0  0  0  0  0  0  0
   -5.1837    0.7503   -3.0575 C   0  0  0  0  0  0  0  0  0  0  0  0
   -4.4886   -0.1723   -2.6536 O   0  0  0  0  0  0  0  0  0  0  0  0
   -5.9840    1.4576   -0.0846 C   0  0  0  0  0  0  0  0  0  0  0  0
   -7.0748    1.0205   -0.4322 O   0  0  0  0  0  0  0  0  0  0  0  0
    2.3778    1.3022    0.2029 H   0  0  0  0  0  0  0  0  0  0  0  0
    3.6843    2.2825   -0.4625 H   0  0  0  0  0  0  0  0  0  0  0  0
    1.7892   -0.6955   -1.0420 H   0  0  0  0  0  0  0  0  0  0  0  0
   -0.4804   -2.2218   -2.9529 H   0  0  0  0  0  0  0  0  0  0  0  0
   -2.1973   -1.1726   -1.4815 H   0  0  0  0  0  0  0  0  0  0  0  0
    0.0116   -2.4422    2.0023 H   0  0  0  0  0  0  0  0  0  0  0  0
    2.5894   -5.4644   -4.3734 H   0  0  0  0  0  0  0  0  0  0  0  0
    6.0501   -3.1674   -2.4257 H   0  0  0  0  0  0  0  0  0  0  0  0
    8.1810   -1.9443   -2.3986 H   0  0  0  0  0  0  0  0  0  0  0  0
    8.2663    0.4628   -1.7693 H   0  0  0  0  0  0  0  0  0  0  0  0
    6.1599    1.6540   -1.1210 H   0  0  0  0  0  0  0  0  0  0  0  0
    4.3493   -0.9545    0.8981 H   0  0  0  0  0  0  0  0  0  0  0  0
    5.0268    0.2356    3.6081 H   0  0  0  0  0  0  0  0  0  0  0  0
    5.9307   -1.0775    2.8442 H   0  0  0  0  0  0  0  0  0  0  0  0
    4.6037   -2.3524    4.2336 H   0  0  0  0  0  0  0  0  0  0  0  0
    3.5013   -2.3001    2.8562 H   0  0  0  0  0  0  0  0  0  0  0  0
    1.5918   -0.6025    2.9901 H   0  0  0  0  0  0  0  0  0  0  0  0
    2.6369    0.7667    3.4512 H   0  0  0  0  0  0  0  0  0  0  0  0
    1.6354    0.5265    5.8286 H   0  0  0  0  0  0  0  0  0  0  0  0
    0.3735   -0.4779    5.0882 H   0  0  0  0  0  0  0  0  0  0  0  0
    0.1402    1.1492    2.4167 H   0  0  0  0  0  0  0  0  0  0  0  0
   -1.1983    0.6727    3.4888 H   0  0  0  0  0  0  0  0  0  0  0  0
   -1.4782    3.1562    4.0809 H   0  0  0  0  0  0  0  0  0  0  0  0
   -0.2626    3.5274    2.8542 H   0  0  0  0  0  0  0  0  0  0  0  0
   -1.8757    3.1734    1.1729 H   0  0  0  0  0  0  0  0  0  0  0  0
   -3.2732    1.8371    4.3648 H   0  0  0  0  0  0  0  0  0  0  0  0
   -5.5203    0.8030    4.5016 H   0  0  0  0  0  0  0  0  0  0  0  0
   -6.9273    0.5419    2.4346 H   0  0  0  0  0  0  0  0  0  0  0  0
   -4.2809    2.6391   -2.8044 H   0  0  0  0  0  0  0  0  0  0  0  0
   -6.3260    3.9965   -2.4906 H   0  0  0  0  0  0  0  0  0  0  0  0
   -7.3253    2.5423   -2.4637 H   0  0  0  0  0  0  0  0  0  0  0  0
   -7.4390    3.4671   -4.7315 H   0  0  0  0  0  0  0  0  0  0  0  0
   -5.6864    3.5606   -4.8522 H   0  0  0  0  0  0  0  0  0  0  0  0
   -5.5896   -0.2958   -4.8064 H   0  0  0  0  0  0  0  0  0  0  0  0
  1  2  2  0  0  0  0
  2  3  1  0  0  0  0
  2 28  1  0  0  0  0
  3  4  1  0  0  0  0
  3 57  1  0  0  0  0
  3 58  1  0  0  0  0
  4  5  1  0  0  0  0
  4 27  1  0  0  0  0
  5  6  2  0  0  0  0
  5 59  1  0  0  0  0
  6  7  1  0  0  0  0
  6 22  1  0  0  0  0
  7  8  2  0  0  0  0
  7 20  1  0  0  0  0
  8  9  1  0  0  0  0
  8 17  1  0  0  0  0
  9 10  2  0  0  0  0
  9 15  1  0  0  0  0
 10 11  1  0  0  0  0
 10 60  1  0  0  0  0
 11 12  2  0  0  0  0
 11 61  1  0  0  0  0
 12 13  1  0  0  0  0
 12 14  1  0  0  0  0
 14 15  2  0  0  0  0
 14 62  1  0  0  0  0
 15 16  1  0  0  0  0
 17 18  2  0  0  0  0
 17 19  1  0  0  0  0
 19 20  1  0  0  0  0
 19 63  1  0  0  0  0
 20 21  2  0  0  0  0
 22 23  2  0  0  0  0
 22 27  1  0  0  0  0
 23 24  1  0  0  0  0
 23 64  1  0  0  0  0
 24 25  2  0  0  0  0
 24 65  1  0  0  0  0
 25 26  1  0  0  0  0
 25 66  1  0  0  0  0
 26 27  2  0  0  0  0
 26 67  1  0  0  0  0
 28 29  1  0  0  0  0
 28 68  1  0  0  0  0
 29 30  1  0  0  0  0
 29 69  1  0  0  0  0
 29 70  1  0  0  0  0
 30 31  1  0  0  0  0
 30 71  1  0  0  0  0
 30 72  1  0  0  0  0
 31 32  1  0  0  0  0
 32 33  1  0  0  0  0
 32 73  1  0  0  0  0
 32 74  1  0  0  0  0
 33 34  1  0  0  0  0
 33 75  1  0  0  0  0
 33 76  1  0  0  0  0
 34 35  1  0  0  0  0
 35 36  1  0  0  0  0
 35 77  1  0  0  0  0
 35 78  1  0  0  0  0
 36 37  1  0  0  0  0
 36 79  1  0  0  0  0
 36 80  1  0  0  0  0
 37 38  1  0  0  0  0
 37 81  1  0  0  0  0
 38 39  2  0  0  0  0
 38 43  1  0  0  0  0
 39 40  1  0  0  0  0
 39 82  1  0  0  0  0
 40 41  2  0  0  0  0
 40 83  1  0  0  0  0
 41 42  1  0  0  0  0
 41 84  1  0  0  0  0
 42 43  2  0  0  0  0
 42 55  1  0  0  0  0
 43 44  1  0  0  0  0
 44 45  2  0  0  0  0
 44 46  1  0  0  0  0
 46 47  1  0  0  0  0
 46 55  1  0  0  0  0
 47 48  1  0  0  0  0
 47 53  1  0  0  0  0
 47 85  1  0  0  0  0
 48 49  1  0  0  0  0
 48 86  1  0  0  0  0
 48 87  1  0  0  0  0
 49 50  1  0  0  0  0
 49 88  1  0  0  0  0
 49 89  1  0  0  0  0
 50 51  2  0  0  0  0
 50 52  1  0  0  0  0
 52 53  1  0  0  0  0
 52 90  1  0  0  0  0
 53 54  2  0  0  0  0
 55 56  2  0  0  0  0
M  END
$$$$
protac3895RUN2
  chem.cr 07102519423D
protac3895RUN2
 90 96  0  0  0  0  0  0  0  0999 V2000
    0.6944   -0.9024   -1.2242 O   0  0  0  0  0  0  0  0  0  0  0  0
    1.5382   -0.6413   -0.3803 C   0  0  0  0  0  0  0  0  0  0  0  0
    2.9257   -1.2330   -0.4028 C   0  0  0  0  0  0  0  0  0  0  0  0
    3.8725   -0.6728    0.5885 N   0  0  0  0  0  0  0  0  0  0  0  0
    5.0567   -0.1078    0.1104 C   0  0  0  0  0  0  0  0  0  0  0  0
    6.1173   -0.4110    0.8930 C   0  0  0  0  0  0  0  0  0  0  0  0
    7.4118    0.0192    0.7422 C   0  0  0  0  0  0  0  0  0  0  0  0
    7.9138    0.6946   -0.3264 C   0  0  0  0  0  0  0  0  0  0  0  0
    7.2321    1.0722   -1.4728 C   0  0  0  0  0  0  0  0  0  0  0  0
    6.9080    2.4318   -1.6777 C   0  0  0  0  0  0  0  0  0  0  0  0
    6.1871    2.8289   -2.8169 C   0  0  0  0  0  0  0  0  0  0  0  0
    5.7816    1.8723   -3.7593 C   0  0  0  0  0  0  0  0  0  0  0  0
    4.8816    2.3669   -5.1868 Cl  0  0  0  0  0  0  0  0  0  0  0  0
    6.1063    0.5199   -3.5714 C   0  0  0  0  0  0  0  0  0  0  0  0
    6.8430    0.1198   -2.4440 C   0  0  0  0  0  0  0  0  0  0  0  0
    7.2293   -1.5888   -2.2371 Cl  0  0  0  0  0  0  0  0  0  0  0  0
    9.2051    0.9820   -0.1651 C   0  0  0  0  0  0  0  0  0  0  0  0
   10.0290    1.5708   -0.8534 O   0  0  0  0  0  0  0  0  0  0  0  0
    9.6131    0.4798    1.0547 N   0  0  0  0  0  0  0  0  0  0  0  0
    8.4584   -0.0659    1.6061 C   0  0  0  0  0  0  0  0  0  0  0  0
    8.5872   -0.4236    2.7662 O   0  0  0  0  0  0  0  0  0  0  0  0
    5.5880   -1.2491    1.8974 C   0  0  0  0  0  0  0  0  0  0  0  0
    6.1860   -2.1049    2.8516 C   0  0  0  0  0  0  0  0  0  0  0  0
    5.3706   -2.8779    3.7067 C   0  0  0  0  0  0  0  0  0  0  0  0
    3.9672   -2.8640    3.5780 C   0  0  0  0  0  0  0  0  0  0  0  0
    3.3694   -2.1185    2.5486 C   0  0  0  0  0  0  0  0  0  0  0  0
    4.2026   -1.3468    1.7295 C   0  0  0  0  0  0  0  0  0  0  0  0
    1.1455    0.0173    0.7913 N   0  0  0  0  0  0  0  0  0  0  0  0
   -0.2394    0.0130    1.2812 C   0  0  0  0  0  0  0  0  0  0  0  0
   -0.2593   -0.2495    2.7938 C   0  0  0  0  0  0  0  0  0  0  0  0
   -1.6204   -0.1607    3.2254 O   0  0  0  0  0  0  0  0  0  0  0  0
   -1.8300    0.3694    4.5422 C   0  0  0  0  0  0  0  0  0  0  0  0
   -1.6550    1.9165    4.5310 C   0  0  0  0  0  0  0  0  0  0  0  0
   -2.8741    2.5271    4.0655 O   0  0  0  0  0  0  0  0  0  0  0  0
   -3.0613    2.5864    2.6414 C   0  0  0  0  0  0  0  0  0  0  0  0
   -4.5751    2.7236    2.3857 C   0  0  0  0  0  0  0  0  0  0  0  0
   -4.9726    2.1158    1.1000 N   0  0  0  0  0  0  0  0  0  0  0  0
   -5.0583    0.7465    0.8507 C   0  0  0  0  0  0  0  0  0  0  0  0
   -4.5971   -0.2356    1.7652 C   0  0  0  0  0  0  0  0  0  0  0  0
   -4.6528   -1.6153    1.4574 C   0  0  0  0  0  0  0  0  0  0  0  0
   -5.1888   -2.0493    0.2308 C   0  0  0  0  0  0  0  0  0  0  0  0
   -5.6627   -1.0756   -0.6540 C   0  0  0  0  0  0  0  0  0  0  0  0
   -5.6081    0.2824   -0.3537 C   0  0  0  0  0  0  0  0  0  0  0  0
   -6.1684    0.9577   -1.4130 C   0  0  0  0  0  0  0  0  0  0  0  0
   -6.3869    2.1599   -1.5150 O   0  0  0  0  0  0  0  0  0  0  0  0
   -6.5927    0.0341   -2.3829 N   0  0  0  0  0  0  0  0  0  0  0  0
   -6.7156    0.3896   -3.8170 C   0  0  0  0  0  0  0  0  0  0  0  0
   -8.0700   -0.0007   -4.4524 C   0  0  0  0  0  0  0  0  0  0  0  0
   -8.1327   -1.4830   -4.8972 C   0  0  0  0  0  0  0  0  0  0  0  0
   -6.8390   -2.0219   -5.4775 C   0  0  0  0  0  0  0  0  0  0  0  0
   -6.7725   -3.0884   -6.0708 O   0  0  0  0  0  0  0  0  0  0  0  0
   -5.6475   -1.2962   -5.3616 N   0  0  0  0  0  0  0  0  0  0  0  0
   -5.5382   -0.1038   -4.6380 C   0  0  0  0  0  0  0  0  0  0  0  0
   -4.4929    0.5197   -4.7596 O   0  0  0  0  0  0  0  0  0  0  0  0
   -6.2321   -1.2336   -1.8928 C   0  0  0  0  0  0  0  0  0  0  0  0
   -6.6708   -2.2760   -2.3563 O   0  0  0  0  0  0  0  0  0  0  0  0
    2.8433   -2.3124   -0.2329 H   0  0  0  0  0  0  0  0  0  0  0  0
    3.3310   -1.0999   -1.4129 H   0  0  0  0  0  0  0  0  0  0  0  0
    4.9815    0.5250   -0.7698 H   0  0  0  0  0  0  0  0  0  0  0  0
    7.2142    3.1784   -0.9492 H   0  0  0  0  0  0  0  0  0  0  0  0
    5.9394    3.8776   -2.9699 H   0  0  0  0  0  0  0  0  0  0  0  0
    5.7880   -0.2183   -4.3012 H   0  0  0  0  0  0  0  0  0  0  0  0
   10.3519    0.8815    1.6072 H   0  0  0  0  0  0  0  0  0  0  0  0
    7.2534   -2.2469    2.9203 H   0  0  0  0  0  0  0  0  0  0  0  0
    5.8351   -3.5124    4.4562 H   0  0  0  0  0  0  0  0  0  0  0  0
    3.3562   -3.4764    4.2364 H   0  0  0  0  0  0  0  0  0  0  0  0
    2.2977   -2.1645    2.3816 H   0  0  0  0  0  0  0  0  0  0  0  0
    1.8808    0.3395    1.4091 H   0  0  0  0  0  0  0  0  0  0  0  0
   -0.8255   -0.7618    0.7647 H   0  0  0  0  0  0  0  0  0  0  0  0
   -0.7031    0.9836    1.0572 H   0  0  0  0  0  0  0  0  0  0  0  0
    0.3748    0.4919    3.2962 H   0  0  0  0  0  0  0  0  0  0  0  0
    0.1391   -1.2491    3.0084 H   0  0  0  0  0  0  0  0  0  0  0  0
   -1.1212   -0.0831    5.2475 H   0  0  0  0  0  0  0  0  0  0  0  0
   -2.8427    0.1294    4.8915 H   0  0  0  0  0  0  0  0  0  0  0  0
   -0.7984    2.2219    3.9158 H   0  0  0  0  0  0  0  0  0  0  0  0
   -1.4496    2.2465    5.5564 H   0  0  0  0  0  0  0  0  0  0  0  0
   -2.5219    3.4389    2.2092 H   0  0  0  0  0  0  0  0  0  0  0  0
   -2.6972    1.6791    2.1498 H   0  0  0  0  0  0  0  0  0  0  0  0
   -5.1301    2.2421    3.2016 H   0  0  0  0  0  0  0  0  0  0  0  0
   -4.8391    3.7904    2.3982 H   0  0  0  0  0  0  0  0  0  0  0  0
   -5.3096    2.7214    0.3580 H   0  0  0  0  0  0  0  0  0  0  0  0
   -4.1848    0.0575    2.7223 H   0  0  0  0  0  0  0  0  0  0  0  0
   -4.2750   -2.3461    2.1675 H   0  0  0  0  0  0  0  0  0  0  0  0
   -5.2408   -3.1055   -0.0272 H   0  0  0  0  0  0  0  0  0  0  0  0
   -6.6627    1.4842   -3.8701 H   0  0  0  0  0  0  0  0  0  0  0  0
   -8.2209    0.6339   -5.3363 H   0  0  0  0  0  0  0  0  0  0  0  0
   -8.8934    0.2216   -3.7604 H   0  0  0  0  0  0  0  0  0  0  0  0
   -8.4299   -2.1132   -4.0545 H   0  0  0  0  0  0  0  0  0  0  0  0
   -8.9319   -1.6125   -5.6378 H   0  0  0  0  0  0  0  0  0  0  0  0
   -4.8180   -1.6591   -5.8048 H   0  0  0  0  0  0  0  0  0  0  0  0
  1  2  2  0  0  0  0
  2  3  1  0  0  0  0
  2 28  1  0  0  0  0
  3  4  1  0  0  0  0
  3 57  1  0  0  0  0
  3 58  1  0  0  0  0
  4  5  1  0  0  0  0
  4 27  1  0  0  0  0
  5  6  2  0  0  0  0
  5 59  1  0  0  0  0
  6  7  1  0  0  0  0
  6 22  1  0  0  0  0
  7  8  2  0  0  0  0
  7 20  1  0  0  0  0
  8  9  1  0  0  0  0
  8 17  1  0  0  0  0
  9 10  2  0  0  0  0
  9 15  1  0  0  0  0
 10 11  1  0  0  0  0
 10 60  1  0  0  0  0
 11 12  2  0  0  0  0
 11 61  1  0  0  0  0
 12 13  1  0  0  0  0
 12 14  1  0  0  0  0
 14 15  2  0  0  0  0
 14 62  1  0  0  0  0
 15 16  1  0  0  0  0
 17 18  2  0  0  0  0
 17 19  1  0  0  0  0
 19 20  1  0  0  0  0
 19 63  1  0  0  0  0
 20 21  2  0  0  0  0
 22 23  2  0  0  0  0
 22 27  1  0  0  0  0
 23 24  1  0  0  0  0
 23 64  1  0  0  0  0
 24 25  2  0  0  0  0
 24 65  1  0  0  0  0
 25 26  1  0  0  0  0
 25 66  1  0  0  0  0
 26 27  2  0  0  0  0
 26 67  1  0  0  0  0
 28 29  1  0  0  0  0
 28 68  1  0  0  0  0
 29 30  1  0  0  0  0
 29 69  1  0  0  0  0
 29 70  1  0  0  0  0
 30 31  1  0  0  0  0
 30 71  1  0  0  0  0
 30 72  1  0  0  0  0
 31 32  1  0  0  0  0
 32 33  1  0  0  0  0
 32 73  1  0  0  0  0
 32 74  1  0  0  0  0
 33 34  1  0  0  0  0
 33 75  1  0  0  0  0
 33 76  1  0  0  0  0
 34 35  1  0  0  0  0
 35 36  1  0  0  0  0
 35 77  1  0  0  0  0
 35 78  1  0  0  0  0
 36 37  1  0  0  0  0
 36 79  1  0  0  0  0
 36 80  1  0  0  0  0
 37 38  1  0  0  0  0
 37 81  1  0  0  0  0
 38 39  2  0  0  0  0
 38 43  1  0  0  0  0
 39 40  1  0  0  0  0
 39 82  1  0  0  0  0
 40 41  2  0  0  0  0
 40 83  1  0  0  0  0
 41 42  1  0  0  0  0
 41 84  1  0  0  0  0
 42 43  2  0  0  0  0
 42 55  1  0  0  0  0
 43 44  1  0  0  0  0
 44 45  2  0  0  0  0
 44 46  1  0  0  0  0
 46 47  1  0  0  0  0
 46 55  1  0  0  0  0
 47 48  1  0  0  0  0
 47 53  1  0  0  0  0
 47 85  1  0  0  0  0
 48 49  1  0  0  0  0
 48 86  1  0  0  0  0
 48 87  1  0  0  0  0
 49 50  1  0  0  0  0
 49 88  1  0  0  0  0
 49 89  1  0  0  0  0
 50 51  2  0  0  0  0
 50 52  1  0  0  0  0
 52 53  1  0  0  0  0
 52 90  1  0  0  0  0
 53 54  2  0  0  0  0
 55 56  2  0  0  0  0
M  END
$$$$
protac3895RUN2
  chem.cr 07102519423D
protac3895RUN2
 90 96  0  0  0  0  0  0  0  0999 V2000
   -0.5280    4.4097   -1.2403 O   0  0  0  0  0  0  0  0  0  0  0  0
   -0.2336    3.2345   -1.0648 C   0  0  0  0  0  0  0  0  0  0  0  0
    1.0619    2.6171   -1.5359 C   0  0  0  0  0  0  0  0  0  0  0  0
    2.2245    3.1026   -0.7717 N   0  0  0  0  0  0  0  0  0  0  0  0
    2.7378    4.3859   -0.9807 C   0  0  0  0  0  0  0  0  0  0  0  0
    4.0123    4.4779   -0.5361 C   0  0  0  0  0  0  0  0  0  0  0  0
    4.7791    5.6118   -0.4278 C   0  0  0  0  0  0  0  0  0  0  0  0
    4.4911    6.8299   -0.9488 C   0  0  0  0  0  0  0  0  0  0  0  0
    3.4053    7.1476   -1.7416 C   0  0  0  0  0  0  0  0  0  0  0  0
    2.2806    7.7750   -1.1710 C   0  0  0  0  0  0  0  0  0  0  0  0
    1.1520    8.0607   -1.9607 C   0  0  0  0  0  0  0  0  0  0  0  0
    1.1524    7.7348   -3.3265 C   0  0  0  0  0  0  0  0  0  0  0  0
   -0.2607    8.0843   -4.3127 Cl  0  0  0  0  0  0  0  0  0  0  0  0
    2.2755    7.1238   -3.9057 C   0  0  0  0  0  0  0  0  0  0  0  0
    3.3996    6.8305   -3.1171 C   0  0  0  0  0  0  0  0  0  0  0  0
    4.7878    6.0471   -3.8690 Cl  0  0  0  0  0  0  0  0  0  0  0  0
    5.4112    7.7409   -0.6364 C   0  0  0  0  0  0  0  0  0  0  0  0
    5.5351    8.9348   -0.8816 O   0  0  0  0  0  0  0  0  0  0  0  0
    6.3887    7.1173    0.1131 N   0  0  0  0  0  0  0  0  0  0  0  0
    5.9366    5.8058    0.2585 C   0  0  0  0  0  0  0  0  0  0  0  0
    6.5988    5.1295    1.0304 O   0  0  0  0  0  0  0  0  0  0  0  0
    4.3558    3.1656   -0.1527 C   0  0  0  0  0  0  0  0  0  0  0  0
    5.6041    2.5512    0.0915 C   0  0  0  0  0  0  0  0  0  0  0  0
    5.6546    1.1740    0.3980 C   0  0  0  0  0  0  0  0  0  0  0  0
    4.4861    0.3849    0.3907 C   0  0  0  0  0  0  0  0  0  0  0  0
    3.2554    0.9608    0.0257 C   0  0  0  0  0  0  0  0  0  0  0  0
    3.2341    2.3337   -0.2621 C   0  0  0  0  0  0  0  0  0  0  0  0
   -1.1672    2.3744   -0.4677 N   0  0  0  0  0  0  0  0  0  0  0  0
   -2.4129    2.8504    0.1545 C   0  0  0  0  0  0  0  0  0  0  0  0
   -3.5913    2.8214   -0.8343 C   0  0  0  0  0  0  0  0  0  0  0  0
   -3.7840    1.4620   -1.2458 O   0  0  0  0  0  0  0  0  0  0  0  0
   -4.9641    1.2286   -2.0270 C   0  0  0  0  0  0  0  0  0  0  0  0
   -5.0197   -0.2747   -2.3417 C   0  0  0  0  0  0  0  0  0  0  0  0
   -5.2223   -0.9616   -1.0996 O   0  0  0  0  0  0  0  0  0  0  0  0
   -4.9451   -2.3621   -1.1315 C   0  0  0  0  0  0  0  0  0  0  0  0
   -4.9701   -2.8490    0.3273 C   0  0  0  0  0  0  0  0  0  0  0  0
   -4.0796   -4.0076    0.5058 N   0  0  0  0  0  0  0  0  0  0  0  0
   -2.6974   -3.9409    0.6494 C   0  0  0  0  0  0  0  0  0  0  0  0
   -1.9624   -2.7337    0.5287 C   0  0  0  0  0  0  0  0  0  0  0  0
   -0.5529   -2.7222    0.6667 C   0  0  0  0  0  0  0  0  0  0  0  0
    0.1510   -3.9125    0.9400 C   0  0  0  0  0  0  0  0  0  0  0  0
   -0.5869   -5.0950    1.0765 C   0  0  0  0  0  0  0  0  0  0  0  0
   -1.9707   -5.1077    0.9240 C   0  0  0  0  0  0  0  0  0  0  0  0
   -2.3972   -6.4035    1.0915 C   0  0  0  0  0  0  0  0  0  0  0  0
   -3.5013   -6.8722    0.8426 O   0  0  0  0  0  0  0  0  0  0  0  0
   -1.2886   -7.2108    1.3871 N   0  0  0  0  0  0  0  0  0  0  0  0
   -1.3721   -8.5724    1.9851 C   0  0  0  0  0  0  0  0  0  0  0  0
   -2.3255   -8.6117    3.2050 C   0  0  0  0  0  0  0  0  0  0  0  0
   -1.7434   -7.7384    4.3425 C   0  0  0  0  0  0  0  0  0  0  0  0
   -0.2759   -8.0182    4.6123 C   0  0  0  0  0  0  0  0  0  0  0  0
    0.2991   -7.6476    5.6242 O   0  0  0  0  0  0  0  0  0  0  0  0
    0.4758   -8.7534    3.6847 N   0  0  0  0  0  0  0  0  0  0  0  0
   -0.0281   -9.1359    2.4319 C   0  0  0  0  0  0  0  0  0  0  0  0
    0.5699  -10.0251    1.8425 O   0  0  0  0  0  0  0  0  0  0  0  0
   -0.1569   -6.3739    1.3495 C   0  0  0  0  0  0  0  0  0  0  0  0
    0.9703   -6.8089    1.1485 O   0  0  0  0  0  0  0  0  0  0  0  0
    1.0077    1.5269   -1.4637 H   0  0  0  0  0  0  0  0  0  0  0  0
    1.2081    2.8729   -2.5918 H   0  0  0  0  0  0  0  0  0  0  0  0
    2.0560    5.1457   -1.3508 H   0  0  0  0  0  0  0  0  0  0  0  0
    2.2773    8.0269   -0.1137 H   0  0  0  0  0  0  0  0  0  0  0  0
    0.2782    8.5315   -1.5169 H   0  0  0  0  0  0  0  0  0  0  0  0
    2.2738    6.8719   -4.9626 H   0  0  0  0  0  0  0  0  0  0  0  0
    7.0056    7.5821    0.7598 H   0  0  0  0  0  0  0  0  0  0  0  0
    6.5391    3.0848   -0.0052 H   0  0  0  0  0  0  0  0  0  0  0  0
    6.6135    0.7112    0.6164 H   0  0  0  0  0  0  0  0  0  0  0  0
    4.5486   -0.6748    0.6239 H   0  0  0  0  0  0  0  0  0  0  0  0
    2.3601    0.3529   -0.0377 H   0  0  0  0  0  0  0  0  0  0  0  0
   -1.0377    1.3768   -0.5688 H   0  0  0  0  0  0  0  0  0  0  0  0
   -2.2707    3.8759    0.5245 H   0  0  0  0  0  0  0  0  0  0  0  0
   -2.6486    2.2136    1.0171 H   0  0  0  0  0  0  0  0  0  0  0  0
   -3.3647    3.4636   -1.6960 H   0  0  0  0  0  0  0  0  0  0  0  0
   -4.4890    3.2066   -0.3345 H   0  0  0  0  0  0  0  0  0  0  0  0
   -4.9276    1.7992   -2.9632 H   0  0  0  0  0  0  0  0  0  0  0  0
   -5.8632    1.5210   -1.4707 H   0  0  0  0  0  0  0  0  0  0  0  0
   -4.0745   -0.5751   -2.8135 H   0  0  0  0  0  0  0  0  0  0  0  0
   -5.8410   -0.4843   -3.0398 H   0  0  0  0  0  0  0  0  0  0  0  0
   -5.6844   -2.9073   -1.7323 H   0  0  0  0  0  0  0  0  0  0  0  0
   -3.9499   -2.5359   -1.5600 H   0  0  0  0  0  0  0  0  0  0  0  0
   -4.6555   -2.0345    0.9938 H   0  0  0  0  0  0  0  0  0  0  0  0
   -6.0000   -3.1141    0.6007 H   0  0  0  0  0  0  0  0  0  0  0  0
   -4.4884   -4.9362    0.5560 H   0  0  0  0  0  0  0  0  0  0  0  0
   -2.4734   -1.8005    0.3162 H   0  0  0  0  0  0  0  0  0  0  0  0
   -0.0070   -1.7887    0.5605 H   0  0  0  0  0  0  0  0  0  0  0  0
    1.2335   -3.9201    1.0457 H   0  0  0  0  0  0  0  0  0  0  0  0
   -1.7677   -9.2405    1.2079 H   0  0  0  0  0  0  0  0  0  0  0  0
   -2.4191   -9.6506    3.5526 H   0  0  0  0  0  0  0  0  0  0  0  0
   -3.3371   -8.2812    2.9374 H   0  0  0  0  0  0  0  0  0  0  0  0
   -1.8473   -6.6779    4.0825 H   0  0  0  0  0  0  0  0  0  0  0  0
   -2.3183   -7.8883    5.2654 H   0  0  0  0  0  0  0  0  0  0  0  0
    1.4184   -9.0203    3.9263 H   0  0  0  0  0  0  0  0  0  0  0  0
  1  2  2  0  0  0  0
  2  3  1  0  0  0  0
  2 28  1  0  0  0  0
  3  4  1  0  0  0  0
  3 57  1  0  0  0  0
  3 58  1  0  0  0  0
  4  5  1  0  0  0  0
  4 27  1  0  0  0  0
  5  6  2  0  0  0  0
  5 59  1  0  0  0  0
  6  7  1  0  0  0  0
  6 22  1  0  0  0  0
  7  8  2  0  0  0  0
  7 20  1  0  0  0  0
  8  9  1  0  0  0  0
  8 17  1  0  0  0  0
  9 10  2  0  0  0  0
  9 15  1  0  0  0  0
 10 11  1  0  0  0  0
 10 60  1  0  0  0  0
 11 12  2  0  0  0  0
 11 61  1  0  0  0  0
 12 13  1  0  0  0  0
 12 14  1  0  0  0  0
 14 15  2  0  0  0  0
 14 62  1  0  0  0  0
 15 16  1  0  0  0  0
 17 18  2  0  0  0  0
 17 19  1  0  0  0  0
 19 20  1  0  0  0  0
 19 63  1  0  0  0  0
 20 21  2  0  0  0  0
 22 23  2  0  0  0  0
 22 27  1  0  0  0  0
 23 24  1  0  0  0  0
 23 64  1  0  0  0  0
 24 25  2  0  0  0  0
 24 65  1  0  0  0  0
 25 26  1  0  0  0  0
 25 66  1  0  0  0  0
 26 27  2  0  0  0  0
 26 67  1  0  0  0  0
 28 29  1  0  0  0  0
 28 68  1  0  0  0  0
 29 30  1  0  0  0  0
 29 69  1  0  0  0  0
 29 70  1  0  0  0  0
 30 31  1  0  0  0  0
 30 71  1  0  0  0  0
 30 72  1  0  0  0  0
 31 32  1  0  0  0  0
 32 33  1  0  0  0  0
 32 73  1  0  0  0  0
 32 74  1  0  0  0  0
 33 34  1  0  0  0  0
 33 75  1  0  0  0  0
 33 76  1  0  0  0  0
 34 35  1  0  0  0  0
 35 36  1  0  0  0  0
 35 77  1  0  0  0  0
 35 78  1  0  0  0  0
 36 37  1  0  0  0  0
 36 79  1  0  0  0  0
 36 80  1  0  0  0  0
 37 38  1  0  0  0  0
 37 81  1  0  0  0  0
 38 39  2  0  0  0  0
 38 43  1  0  0  0  0
 39 40  1  0  0  0  0
 39 82  1  0  0  0  0
 40 41  2  0  0  0  0
 40 83  1  0  0  0  0
 41 42  1  0  0  0  0
 41 84  1  0  0  0  0
 42 43  2  0  0  0  0
 42 55  1  0  0  0  0
 43 44  1  0  0  0  0
 44 45  2  0  0  0  0
 44 46  1  0  0  0  0
 46 47  1  0  0  0  0
 46 55  1  0  0  0  0
 47 48  1  0  0  0  0
 47 53  1  0  0  0  0
 47 85  1  0  0  0  0
 48 49  1  0  0  0  0
 48 86  1  0  0  0  0
 48 87  1  0  0  0  0
 49 50  1  0  0  0  0
 49 88  1  0  0  0  0
 49 89  1  0  0  0  0
 50 51  2  0  0  0  0
 50 52  1  0  0  0  0
 52 53  1  0  0  0  0
 52 90  1  0  0  0  0
 53 54  2  0  0  0  0
 55 56  2  0  0  0  0
M  END
$$$$
protac3895RUN2
  chem.cr 07102519423D
protac3895RUN2
 90 96  0  0  0  0  0  0  0  0999 V2000
   -1.4009    4.4217   -3.3230 O   0  0  0  0  0  0  0  0  0  0  0  0
   -1.0391    3.4883   -2.6196 C   0  0  0  0  0  0  0  0  0  0  0  0
    0.1628    2.6235   -2.9086 C   0  0  0  0  0  0  0  0  0  0  0  0
    1.1704    2.6529   -1.8332 N   0  0  0  0  0  0  0  0  0  0  0  0
    1.3821    3.8173   -1.0949 C   0  0  0  0  0  0  0  0  0  0  0  0
    1.9453    3.5444    0.1015 C   0  0  0  0  0  0  0  0  0  0  0  0
    2.3813    4.4516    1.0309 C   0  0  0  0  0  0  0  0  0  0  0  0
    2.0729    5.7708    1.0564 C   0  0  0  0  0  0  0  0  0  0  0  0
    1.1780    6.4141    0.2198 C   0  0  0  0  0  0  0  0  0  0  0  0
   -0.1977    6.1487    0.3701 C   0  0  0  0  0  0  0  0  0  0  0  0
   -1.1355    6.7272   -0.5012 C   0  0  0  0  0  0  0  0  0  0  0  0
   -0.7024    7.5859   -1.5223 C   0  0  0  0  0  0  0  0  0  0  0  0
   -1.8751    8.2965   -2.6214 Cl  0  0  0  0  0  0  0  0  0  0  0  0
    0.6648    7.8680   -1.6736 C   0  0  0  0  0  0  0  0  0  0  0  0
    1.6065    7.2851   -0.8066 C   0  0  0  0  0  0  0  0  0  0  0  0
    3.3192    7.6153   -1.0585 Cl  0  0  0  0  0  0  0  0  0  0  0  0
    2.6807    6.4058    2.0592 C   0  0  0  0  0  0  0  0  0  0  0  0
    2.6758    7.5661    2.4474 O   0  0  0  0  0  0  0  0  0  0  0  0
    3.4193    5.4760    2.7676 N   0  0  0  0  0  0  0  0  0  0  0  0
    3.2354    4.2799    2.0739 C   0  0  0  0  0  0  0  0  0  0  0  0
    3.9369    3.3570    2.4629 O   0  0  0  0  0  0  0  0  0  0  0  0
    2.0242    2.1394    0.1553 C   0  0  0  0  0  0  0  0  0  0  0  0
    2.2911    1.2501    1.2189 C   0  0  0  0  0  0  0  0  0  0  0  0
    2.2302   -0.1413    0.9920 C   0  0  0  0  0  0  0  0  0  0  0  0
    1.8276   -0.6568   -0.2571 C   0  0  0  0  0  0  0  0  0  0  0  0
    1.4539    0.2203   -1.2913 C   0  0  0  0  0  0  0  0  0  0  0  0
    1.5522    1.5983   -1.0491 C   0  0  0  0  0  0  0  0  0  0  0  0
   -1.8414    3.0808   -1.5469 N   0  0  0  0  0  0  0  0  0  0  0  0
   -3.3049    2.9845   -1.6696 C   0  0  0  0  0  0  0  0  0  0  0  0
   -3.7443    2.3012   -2.9850 C   0  0  0  0  0  0  0  0  0  0  0  0
   -2.9642    1.1072   -3.1657 O   0  0  0  0  0  0  0  0  0  0  0  0
   -3.1160    0.5004   -4.4551 C   0  0  0  0  0  0  0  0  0  0  0  0
   -2.1143   -0.6628   -4.5918 C   0  0  0  0  0  0  0  0  0  0  0  0
   -2.5520   -1.7474   -3.7618 O   0  0  0  0  0  0  0  0  0  0  0  0
   -1.8320   -1.9146   -2.5343 C   0  0  0  0  0  0  0  0  0  0  0  0
   -2.5828   -2.9817   -1.7143 C   0  0  0  0  0  0  0  0  0  0  0  0
   -1.6693   -3.7123   -0.8202 N   0  0  0  0  0  0  0  0  0  0  0  0
   -1.0780   -3.2180    0.3366 C   0  0  0  0  0  0  0  0  0  0  0  0
   -1.2976   -1.9072    0.8254 C   0  0  0  0  0  0  0  0  0  0  0  0
   -0.6772   -1.4593    2.0178 C   0  0  0  0  0  0  0  0  0  0  0  0
    0.1713   -2.3147    2.7499 C   0  0  0  0  0  0  0  0  0  0  0  0
    0.3884   -3.6038    2.2510 C   0  0  0  0  0  0  0  0  0  0  0  0
   -0.2209   -4.0436    1.0774 C   0  0  0  0  0  0  0  0  0  0  0  0
    0.1547   -5.3511    0.8701 C   0  0  0  0  0  0  0  0  0  0  0  0
   -0.3498   -6.1627    0.1005 O   0  0  0  0  0  0  0  0  0  0  0  0
    0.9672   -5.7562    1.9361 N   0  0  0  0  0  0  0  0  0  0  0  0
    1.2411   -7.1727    2.2706 C   0  0  0  0  0  0  0  0  0  0  0  0
    0.0479   -7.8119    3.0181 C   0  0  0  0  0  0  0  0  0  0  0  0
    0.0449   -7.3879    4.5036 C   0  0  0  0  0  0  0  0  0  0  0  0
    1.3823   -7.6344    5.1671 C   0  0  0  0  0  0  0  0  0  0  0  0
    1.5053   -7.8803    6.3576 O   0  0  0  0  0  0  0  0  0  0  0  0
    2.5444   -7.6671    4.3856 N   0  0  0  0  0  0  0  0  0  0  0  0
    2.5571   -7.3858    3.0100 C   0  0  0  0  0  0  0  0  0  0  0  0
    3.6263   -7.5437    2.4370 O   0  0  0  0  0  0  0  0  0  0  0  0
    1.1392   -4.6352    2.7655 C   0  0  0  0  0  0  0  0  0  0  0  0
    1.7444   -4.6603    3.8295 O   0  0  0  0  0  0  0  0  0  0  0  0
   -0.1789    1.5963   -3.0749 H   0  0  0  0  0  0  0  0  0  0  0  0
    0.6328    2.9751   -3.8343 H   0  0  0  0  0  0  0  0  0  0  0  0
    1.1626    4.7653   -1.5766 H   0  0  0  0  0  0  0  0  0  0  0  0
   -0.5337    5.4772    1.1557 H   0  0  0  0  0  0  0  0  0  0  0  0
   -2.1934    6.5060   -0.3920 H   0  0  0  0  0  0  0  0  0  0  0  0
    0.9954    8.5316   -2.4678 H   0  0  0  0  0  0  0  0  0  0  0  0
    4.2591    5.6971    3.2789 H   0  0  0  0  0  0  0  0  0  0  0  0
    2.5038    1.5915    2.2209 H   0  0  0  0  0  0  0  0  0  0  0  0
    2.4777   -0.8250    1.8001 H   0  0  0  0  0  0  0  0  0  0  0  0
    1.7738   -1.7336   -0.4034 H   0  0  0  0  0  0  0  0  0  0  0  0
    1.1025   -0.1654   -2.2430 H   0  0  0  0  0  0  0  0  0  0  0  0
   -1.3859    2.5312   -0.8275 H   0  0  0  0  0  0  0  0  0  0  0  0
   -3.7291    3.9976   -1.6324 H   0  0  0  0  0  0  0  0  0  0  0  0
   -3.7009    2.4179   -0.8165 H   0  0  0  0  0  0  0  0  0  0  0  0
   -3.5737    2.9988   -3.8160 H   0  0  0  0  0  0  0  0  0  0  0  0
   -4.8173    2.0698   -2.9511 H   0  0  0  0  0  0  0  0  0  0  0  0
   -2.9090    1.2317   -5.2465 H   0  0  0  0  0  0  0  0  0  0  0  0
   -4.1373    0.1236   -4.5933 H   0  0  0  0  0  0  0  0  0  0  0  0
   -1.1016   -0.3278   -4.3321 H   0  0  0  0  0  0  0  0  0  0  0  0
   -2.1008   -0.9868   -5.6397 H   0  0  0  0  0  0  0  0  0  0  0  0
   -0.8076   -2.2536   -2.7439 H   0  0  0  0  0  0  0  0  0  0  0  0
   -1.7779   -0.9735   -1.9707 H   0  0  0  0  0  0  0  0  0  0  0  0
   -3.3909   -2.5065   -1.1410 H   0  0  0  0  0  0  0  0  0  0  0  0
   -3.0469   -3.6971   -2.4071 H   0  0  0  0  0  0  0  0  0  0  0  0
   -1.4677   -4.6854   -1.0329 H   0  0  0  0  0  0  0  0  0  0  0  0
   -1.9485   -1.2244    0.2909 H   0  0  0  0  0  0  0  0  0  0  0  0
   -0.8554   -0.4471    2.3726 H   0  0  0  0  0  0  0  0  0  0  0  0
    0.6447   -1.9891    3.6731 H   0  0  0  0  0  0  0  0  0  0  0  0
    1.3470   -7.7009    1.3126 H   0  0  0  0  0  0  0  0  0  0  0  0
    0.1370   -8.9049    2.9571 H   0  0  0  0  0  0  0  0  0  0  0  0
   -0.8987   -7.5415    2.5314 H   0  0  0  0  0  0  0  0  0  0  0  0
   -0.2052   -6.3246    4.5970 H   0  0  0  0  0  0  0  0  0  0  0  0
   -0.7342   -7.9357    5.0473 H   0  0  0  0  0  0  0  0  0  0  0  0
    3.4246   -7.8500    4.8428 H   0  0  0  0  0  0  0  0  0  0  0  0
  1  2  2  0  0  0  0
  2  3  1  0  0  0  0
  2 28  1  0  0  0  0
  3  4  1  0  0  0  0
  3 57  1  0  0  0  0
  3 58  1  0  0  0  0
  4  5  1  0  0  0  0
  4 27  1  0  0  0  0
  5  6  2  0  0  0  0
  5 59  1  0  0  0  0
  6  7  1  0  0  0  0
  6 22  1  0  0  0  0
  7  8  2  0  0  0  0
  7 20  1  0  0  0  0
  8  9  1  0  0  0  0
  8 17  1  0  0  0  0
  9 10  2  0  0  0  0
  9 15  1  0  0  0  0
 10 11  1  0  0  0  0
 10 60  1  0  0  0  0
 11 12  2  0  0  0  0
 11 61  1  0  0  0  0
 12 13  1  0  0  0  0
 12 14  1  0  0  0  0
 14 15  2  0  0  0  0
 14 62  1  0  0  0  0
 15 16  1  0  0  0  0
 17 18  2  0  0  0  0
 17 19  1  0  0  0  0
 19 20  1  0  0  0  0
 19 63  1  0  0  0  0
 20 21  2  0  0  0  0
 22 23  2  0  0  0  0
 22 27  1  0  0  0  0
 23 24  1  0  0  0  0
 23 64  1  0  0  0  0
 24 25  2  0  0  0  0
 24 65  1  0  0  0  0
 25 26  1  0  0  0  0
 25 66  1  0  0  0  0
 26 27  2  0  0  0  0
 26 67  1  0  0  0  0
 28 29  1  0  0  0  0
 28 68  1  0  0  0  0
 29 30  1  0  0  0  0
 29 69  1  0  0  0  0
 29 70  1  0  0  0  0
 30 31  1  0  0  0  0
 30 71  1  0  0  0  0
 30 72  1  0  0  0  0
 31 32  1  0  0  0  0
 32 33  1  0  0  0  0
 32 73  1  0  0  0  0
 32 74  1  0  0  0  0
 33 34  1  0  0  0  0
 33 75  1  0  0  0  0
 33 76  1  0  0  0  0
 34 35  1  0  0  0  0
 35 36  1  0  0  0  0
 35 77  1  0  0  0  0
 35 78  1  0  0  0  0
 36 37  1  0  0  0  0
 36 79  1  0  0  0  0
 36 80  1  0  0  0  0
 37 38  1  0  0  0  0
 37 81  1  0  0  0  0
 38 39  2  0  0  0  0
 38 43  1  0  0  0  0
 39 40  1  0  0  0  0
 39 82  1  0  0  0  0
 40 41  2  0  0  0  0
 40 83  1  0  0  0  0
 41 42  1  0  0  0  0
 41 84  1  0  0  0  0
 42 43  2  0  0  0  0
 42 55  1  0  0  0  0
 43 44  1  0  0  0  0
 44 45  2  0  0  0  0
 44 46  1  0  0  0  0
 46 47  1  0  0  0  0
 46 55  1  0  0  0  0
 47 48  1  0  0  0  0
 47 53  1  0  0  0  0
 47 85  1  0  0  0  0
 48 49  1  0  0  0  0
 48 86  1  0  0  0  0
 48 87  1  0  0  0  0
 49 50  1  0  0  0  0
 49 88  1  0  0  0  0
 49 89  1  0  0  0  0
 50 51  2  0  0  0  0
 50 52  1  0  0  0  0
 52 53  1  0  0  0  0
 52 90  1  0  0  0  0
 53 54  2  0  0  0  0
 55 56  2  0  0  0  0
M  END
$$$$
protac3895RUN2
  chem.cr 07102519423D
protac3895RUN2
 90 96  0  0  0  0  0  0  0  0999 V2000
    2.0843    3.4872   -1.9921 O   0  0  0  0  0  0  0  0  0  0  0  0
    1.1617    4.2855   -1.9029 C   0  0  0  0  0  0  0  0  0  0  0  0
    0.6827    5.1549   -3.0489 C   0  0  0  0  0  0  0  0  0  0  0  0
   -0.7874    5.2886   -3.1367 N   0  0  0  0  0  0  0  0  0  0  0  0
   -1.5555    4.1220   -3.2067 C   0  0  0  0  0  0  0  0  0  0  0  0
   -2.7383    4.2664   -2.5678 C   0  0  0  0  0  0  0  0  0  0  0  0
   -3.7725    3.3725   -2.5190 C   0  0  0  0  0  0  0  0  0  0  0  0
   -3.7031    2.0609   -2.8404 C   0  0  0  0  0  0  0  0  0  0  0  0
   -2.5600    1.3582   -3.1758 C   0  0  0  0  0  0  0  0  0  0  0  0
   -1.5603    1.1681   -2.1991 C   0  0  0  0  0  0  0  0  0  0  0  0
   -0.3726    0.4888   -2.5217 C   0  0  0  0  0  0  0  0  0  0  0  0
   -0.1875   -0.0236   -3.8147 C   0  0  0  0  0  0  0  0  0  0  0  0
    1.2885   -0.8905   -4.2115 Cl  0  0  0  0  0  0  0  0  0  0  0  0
   -1.1831    0.1493   -4.7883 C   0  0  0  0  0  0  0  0  0  0  0  0
   -2.3636    0.8439   -4.4762 C   0  0  0  0  0  0  0  0  0  0  0  0
   -3.5715    1.0788   -5.7401 Cl  0  0  0  0  0  0  0  0  0  0  0  0
   -4.8873    1.4587   -2.7289 C   0  0  0  0  0  0  0  0  0  0  0  0
   -5.2635    0.3065   -2.8969 O   0  0  0  0  0  0  0  0  0  0  0  0
   -5.8071    2.3954   -2.2936 N   0  0  0  0  0  0  0  0  0  0  0  0
   -5.0766    3.5813   -2.2069 C   0  0  0  0  0  0  0  0  0  0  0  0
   -5.7474    4.5770   -1.9685 O   0  0  0  0  0  0  0  0  0  0  0  0
   -2.6922    5.5481   -1.9989 C   0  0  0  0  0  0  0  0  0  0  0  0
   -3.4730    6.1532   -0.9894 C   0  0  0  0  0  0  0  0  0  0  0  0
   -3.1206    7.4371   -0.5174 C   0  0  0  0  0  0  0  0  0  0  0  0
   -1.9663    8.0908   -0.9955 C   0  0  0  0  0  0  0  0  0  0  0  0
   -1.1298    7.4521   -1.9281 C   0  0  0  0  0  0  0  0  0  0  0  0
   -1.5071    6.1830   -2.3874 C   0  0  0  0  0  0  0  0  0  0  0  0
    0.4180    4.3457   -0.7164 N   0  0  0  0  0  0  0  0  0  0  0  0
    0.6875    3.5265    0.4701 C   0  0  0  0  0  0  0  0  0  0  0  0
   -0.0375    4.1225    1.6912 C   0  0  0  0  0  0  0  0  0  0  0  0
   -0.1878    3.1103    2.6977 O   0  0  0  0  0  0  0  0  0  0  0  0
    0.9986    2.7211    3.4090 C   0  0  0  0  0  0  0  0  0  0  0  0
    1.2780    1.2359    3.1044 C   0  0  0  0  0  0  0  0  0  0  0  0
    2.3484    1.1527    2.1474 O   0  0  0  0  0  0  0  0  0  0  0  0
    2.7712   -0.1832    1.8298 C   0  0  0  0  0  0  0  0  0  0  0  0
    2.0991   -0.6058    0.5087 C   0  0  0  0  0  0  0  0  0  0  0  0
    2.0458   -2.0751    0.4104 N   0  0  0  0  0  0  0  0  0  0  0  0
    1.0621   -2.8421    1.0235 C   0  0  0  0  0  0  0  0  0  0  0  0
   -0.2743   -2.3948    1.1826 C   0  0  0  0  0  0  0  0  0  0  0  0
   -1.2355   -3.1879    1.8542 C   0  0  0  0  0  0  0  0  0  0  0  0
   -0.8809   -4.4429    2.3859 C   0  0  0  0  0  0  0  0  0  0  0  0
    0.4400   -4.8752    2.2175 C   0  0  0  0  0  0  0  0  0  0  0  0
    1.3839   -4.1034    1.5438 C   0  0  0  0  0  0  0  0  0  0  0  0
    2.5740   -4.7961    1.5451 C   0  0  0  0  0  0  0  0  0  0  0  0
    3.5749   -4.5734    0.8735 O   0  0  0  0  0  0  0  0  0  0  0  0
    2.3764   -6.0187    2.2000 N   0  0  0  0  0  0  0  0  0  0  0  0
    3.3819   -7.1014    2.3066 C   0  0  0  0  0  0  0  0  0  0  0  0
    3.2217   -8.1435    1.1754 C   0  0  0  0  0  0  0  0  0  0  0  0
    2.0522   -9.1114    1.4705 C   0  0  0  0  0  0  0  0  0  0  0  0
    2.1409   -9.7112    2.8590 C   0  0  0  0  0  0  0  0  0  0  0  0
    1.6721  -10.8016    3.1488 O   0  0  0  0  0  0  0  0  0  0  0  0
    2.8508   -9.0345    3.8596 N   0  0  0  0  0  0  0  0  0  0  0  0
    3.4105   -7.7594    3.6805 C   0  0  0  0  0  0  0  0  0  0  0  0
    4.0804   -7.3306    4.6094 O   0  0  0  0  0  0  0  0  0  0  0  0
    1.0424   -6.0386    2.6325 C   0  0  0  0  0  0  0  0  0  0  0  0
    0.5657   -6.9189    3.3364 O   0  0  0  0  0  0  0  0  0  0  0  0
    1.1322    6.1484   -2.9522 H   0  0  0  0  0  0  0  0  0  0  0  0
    1.0496    4.7224   -3.9875 H   0  0  0  0  0  0  0  0  0  0  0  0
   -1.1743    3.2999   -3.8056 H   0  0  0  0  0  0  0  0  0  0  0  0
   -1.7015    1.5660   -1.1965 H   0  0  0  0  0  0  0  0  0  0  0  0
    0.4063    0.3620   -1.7766 H   0  0  0  0  0  0  0  0  0  0  0  0
   -1.0440   -0.2561   -5.7865 H   0  0  0  0  0  0  0  0  0  0  0  0
   -6.7843    2.3713   -2.5431 H   0  0  0  0  0  0  0  0  0  0  0  0
   -4.3041    5.6489   -0.5187 H   0  0  0  0  0  0  0  0  0  0  0  0
   -3.7380    7.9171    0.2378 H   0  0  0  0  0  0  0  0  0  0  0  0
   -1.7013    9.0724   -0.6105 H   0  0  0  0  0  0  0  0  0  0  0  0
   -0.2101    7.9228   -2.2618 H   0  0  0  0  0  0  0  0  0  0  0  0
   -0.4361    4.8951   -0.7411 H   0  0  0  0  0  0  0  0  0  0  0  0
    1.7698    3.4855    0.6586 H   0  0  0  0  0  0  0  0  0  0  0  0
    0.3351    2.5027    0.2923 H   0  0  0  0  0  0  0  0  0  0  0  0
   -1.0337    4.4689    1.3847 H   0  0  0  0  0  0  0  0  0  0  0  0
    0.5118    4.9950    2.0740 H   0  0  0  0  0  0  0  0  0  0  0  0
    0.8298    2.8409    4.4867 H   0  0  0  0  0  0  0  0  0  0  0  0
    1.8669    3.3392    3.1407 H   0  0  0  0  0  0  0  0  0  0  0  0
    0.3658    0.7503    2.7309 H   0  0  0  0  0  0  0  0  0  0  0  0
    1.5715    0.7396    4.0400 H   0  0  0  0  0  0  0  0  0  0  0  0
    3.8636   -0.2290    1.7199 H   0  0  0  0  0  0  0  0  0  0  0  0
    2.4926   -0.8803    2.6344 H   0  0  0  0  0  0  0  0  0  0  0  0
    1.0930   -0.1767    0.4622 H   0  0  0  0  0  0  0  0  0  0  0  0
    2.6691   -0.1989   -0.3354 H   0  0  0  0  0  0  0  0  0  0  0  0
    2.9210   -2.5667    0.2466 H   0  0  0  0  0  0  0  0  0  0  0  0
   -0.5873   -1.4389    0.7772 H   0  0  0  0  0  0  0  0  0  0  0  0
   -2.2562   -2.8265    1.9605 H   0  0  0  0  0  0  0  0  0  0  0  0
   -1.6055   -5.0620    2.9089 H   0  0  0  0  0  0  0  0  0  0  0  0
    4.3667   -6.6286    2.1750 H   0  0  0  0  0  0  0  0  0  0  0  0
    4.1503   -8.7243    1.1025 H   0  0  0  0  0  0  0  0  0  0  0  0
    3.0820   -7.6406    0.2083 H   0  0  0  0  0  0  0  0  0  0  0  0
    1.0888   -8.5974    1.3649 H   0  0  0  0  0  0  0  0  0  0  0  0
    2.0469   -9.9229    0.7333 H   0  0  0  0  0  0  0  0  0  0  0  0
    2.9080   -9.4580    4.7727 H   0  0  0  0  0  0  0  0  0  0  0  0
  1  2  2  0  0  0  0
  2  3  1  0  0  0  0
  2 28  1  0  0  0  0
  3  4  1  0  0  0  0
  3 57  1  0  0  0  0
  3 58  1  0  0  0  0
  4  5  1  0  0  0  0
  4 27  1  0  0  0  0
  5  6  2  0  0  0  0
  5 59  1  0  0  0  0
  6  7  1  0  0  0  0
  6 22  1  0  0  0  0
  7  8  2  0  0  0  0
  7 20  1  0  0  0  0
  8  9  1  0  0  0  0
  8 17  1  0  0  0  0
  9 10  2  0  0  0  0
  9 15  1  0  0  0  0
 10 11  1  0  0  0  0
 10 60  1  0  0  0  0
 11 12  2  0  0  0  0
 11 61  1  0  0  0  0
 12 13  1  0  0  0  0
 12 14  1  0  0  0  0
 14 15  2  0  0  0  0
 14 62  1  0  0  0  0
 15 16  1  0  0  0  0
 17 18  2  0  0  0  0
 17 19  1  0  0  0  0
 19 20  1  0  0  0  0
 19 63  1  0  0  0  0
 20 21  2  0  0  0  0
 22 23  2  0  0  0  0
 22 27  1  0  0  0  0
 23 24  1  0  0  0  0
 23 64  1  0  0  0  0
 24 25  2  0  0  0  0
 24 65  1  0  0  0  0
 25 26  1  0  0  0  0
 25 66  1  0  0  0  0
 26 27  2  0  0  0  0
 26 67  1  0  0  0  0
 28 29  1  0  0  0  0
 28 68  1  0  0  0  0
 29 30  1  0  0  0  0
 29 69  1  0  0  0  0
 29 70  1  0  0  0  0
 30 31  1  0  0  0  0
 30 71  1  0  0  0  0
 30 72  1  0  0  0  0
 31 32  1  0  0  0  0
 32 33  1  0  0  0  0
 32 73  1  0  0  0  0
 32 74  1  0  0  0  0
 33 34  1  0  0  0  0
 33 75  1  0  0  0  0
 33 76  1  0  0  0  0
 34 35  1  0  0  0  0
 35 36  1  0  0  0  0
 35 77  1  0  0  0  0
 35 78  1  0  0  0  0
 36 37  1  0  0  0  0
 36 79  1  0  0  0  0
 36 80  1  0  0  0  0
 37 38  1  0  0  0  0
 37 81  1  0  0  0  0
 38 39  2  0  0  0  0
 38 43  1  0  0  0  0
 39 40  1  0  0  0  0
 39 82  1  0  0  0  0
 40 41  2  0  0  0  0
 40 83  1  0  0  0  0
 41 42  1  0  0  0  0
 41 84  1  0  0  0  0
 42 43  2  0  0  0  0
 42 55  1  0  0  0  0
 43 44  1  0  0  0  0
 44 45  2  0  0  0  0
 44 46  1  0  0  0  0
 46 47  1  0  0  0  0
 46 55  1  0  0  0  0
 47 48  1  0  0  0  0
 47 53  1  0  0  0  0
 47 85  1  0  0  0  0
 48 49  1  0  0  0  0
 48 86  1  0  0  0  0
 48 87  1  0  0  0  0
 49 50  1  0  0  0  0
 49 88  1  0  0  0  0
 49 89  1  0  0  0  0
 50 51  2  0  0  0  0
 50 52  1  0  0  0  0
 52 53  1  0  0  0  0
 52 90  1  0  0  0  0
 53 54  2  0  0  0  0
 55 56  2  0  0  0  0
M  END
$$$$
protac3895RUN2
  chem.cr 07102519423D
protac3895RUN2
 90 96  0  0  0  0  0  0  0  0999 V2000
    5.2757    4.2057   -0.6550 O   0  0  0  0  0  0  0  0  0  0  0  0
    4.8702    3.0833   -0.9223 C   0  0  0  0  0  0  0  0  0  0  0  0
    5.7854    1.9520   -1.3113 C   0  0  0  0  0  0  0  0  0  0  0  0
    5.9711    0.9553   -0.2331 N   0  0  0  0  0  0  0  0  0  0  0  0
    5.2442   -0.2271   -0.2806 C   0  0  0  0  0  0  0  0  0  0  0  0
    5.9622   -1.2989    0.1322 C   0  0  0  0  0  0  0  0  0  0  0  0
    5.5167   -2.6051    0.1958 C   0  0  0  0  0  0  0  0  0  0  0  0
    4.2835   -3.0372   -0.1889 C   0  0  0  0  0  0  0  0  0  0  0  0
    3.2374   -2.2789   -0.6712 C   0  0  0  0  0  0  0  0  0  0  0  0
    3.1654   -1.9893   -2.0461 C   0  0  0  0  0  0  0  0  0  0  0  0
    2.1337   -1.1779   -2.5469 C   0  0  0  0  0  0  0  0  0  0  0  0
    1.1609   -0.6649   -1.6733 C   0  0  0  0  0  0  0  0  0  0  0  0
   -0.1348    0.3502   -2.3006 Cl  0  0  0  0  0  0  0  0  0  0  0  0
    1.2057   -0.9737   -0.3057 C   0  0  0  0  0  0  0  0  0  0  0  0
    2.2401   -1.7820    0.1976 C   0  0  0  0  0  0  0  0  0  0  0  0
    2.2764   -2.1427    1.9242 Cl  0  0  0  0  0  0  0  0  0  0  0  0
    4.1271   -4.3492   -0.0289 C   0  0  0  0  0  0  0  0  0  0  0  0
    3.1914   -5.1128   -0.2193 O   0  0  0  0  0  0  0  0  0  0  0  0
    5.3025   -4.8566    0.4777 N   0  0  0  0  0  0  0  0  0  0  0  0
    6.1174   -3.7385    0.6558 C   0  0  0  0  0  0  0  0  0  0  0  0
    7.1728   -3.9987    1.2123 O   0  0  0  0  0  0  0  0  0  0  0  0
    7.2278   -0.7544    0.4711 C   0  0  0  0  0  0  0  0  0  0  0  0
    8.4686   -1.3051    0.8747 C   0  0  0  0  0  0  0  0  0  0  0  0
    9.5643   -0.4556    1.1531 C   0  0  0  0  0  0  0  0  0  0  0  0
    9.4514    0.9420    1.0215 C   0  0  0  0  0  0  0  0  0  0  0  0
    8.2510    1.5012    0.5626 C   0  0  0  0  0  0  0  0  0  0  0  0
    7.1896    0.6345    0.2770 C   0  0  0  0  0  0  0  0  0  0  0  0
    3.5655    2.7373   -0.5401 N   0  0  0  0  0  0  0  0  0  0  0  0
    2.9992    3.2076    0.7306 C   0  0  0  0  0  0  0  0  0  0  0  0
    1.8721    2.2774    1.2454 C   0  0  0  0  0  0  0  0  0  0  0  0
    0.5975    2.7404    0.7648 O   0  0  0  0  0  0  0  0  0  0  0  0
    0.0553    3.8589    1.4873 C   0  0  0  0  0  0  0  0  0  0  0  0
   -1.2283    4.3409    0.7841 C   0  0  0  0  0  0  0  0  0  0  0  0
   -2.3048    4.2901    1.7392 O   0  0  0  0  0  0  0  0  0  0  0  0
   -2.9886    3.0346    1.8648 C   0  0  0  0  0  0  0  0  0  0  0  0
   -4.1072    3.0261    0.8061 C   0  0  0  0  0  0  0  0  0  0  0  0
   -4.6712    1.6805    0.6488 N   0  0  0  0  0  0  0  0  0  0  0  0
   -5.7887    1.1811    1.3042 C   0  0  0  0  0  0  0  0  0  0  0  0
   -6.3741    1.7933    2.4369 C   0  0  0  0  0  0  0  0  0  0  0  0
   -7.5260    1.2357    3.0482 C   0  0  0  0  0  0  0  0  0  0  0  0
   -8.1183    0.0615    2.5331 C   0  0  0  0  0  0  0  0  0  0  0  0
   -7.5232   -0.5328    1.4107 C   0  0  0  0  0  0  0  0  0  0  0  0
   -6.3907    0.0157    0.8172 C   0  0  0  0  0  0  0  0  0  0  0  0
   -6.0641   -0.7432   -0.2815 C   0  0  0  0  0  0  0  0  0  0  0  0
   -4.9547   -0.8325   -0.7953 O   0  0  0  0  0  0  0  0  0  0  0  0
   -7.0095   -1.7734   -0.4036 N   0  0  0  0  0  0  0  0  0  0  0  0
   -7.3938   -2.4024   -1.6877 C   0  0  0  0  0  0  0  0  0  0  0  0
   -6.8588   -3.8471   -1.7772 C   0  0  0  0  0  0  0  0  0  0  0  0
   -5.3393   -3.8410   -2.0634 C   0  0  0  0  0  0  0  0  0  0  0  0
   -4.9689   -2.9567   -3.2369 C   0  0  0  0  0  0  0  0  0  0  0  0
   -4.0183   -3.1787   -3.9707 O   0  0  0  0  0  0  0  0  0  0  0  0
   -5.8135   -1.9024   -3.6043 N   0  0  0  0  0  0  0  0  0  0  0  0
   -6.9790   -1.5724   -2.8985 C   0  0  0  0  0  0  0  0  0  0  0  0
   -7.6211   -0.6187   -3.3153 O   0  0  0  0  0  0  0  0  0  0  0  0
   -7.8924   -1.6359    0.6764 C   0  0  0  0  0  0  0  0  0  0  0  0
   -8.8767   -2.3532    0.8198 O   0  0  0  0  0  0  0  0  0  0  0  0
    5.4006    1.4574   -2.2092 H   0  0  0  0  0  0  0  0  0  0  0  0
    6.7641    2.3712   -1.5809 H   0  0  0  0  0  0  0  0  0  0  0  0
    4.2225   -0.1387   -0.6203 H   0  0  0  0  0  0  0  0  0  0  0  0
    3.9202   -2.3891   -2.7188 H   0  0  0  0  0  0  0  0  0  0  0  0
    2.0785   -0.9589   -3.6093 H   0  0  0  0  0  0  0  0  0  0  0  0
    0.4366   -0.5921    0.3624 H   0  0  0  0  0  0  0  0  0  0  0  0
    5.3473   -5.6718    1.0678 H   0  0  0  0  0  0  0  0  0  0  0  0
    8.6532   -2.3592    0.9538 H   0  0  0  0  0  0  0  0  0  0  0  0
   10.5115   -0.8899    1.4639 H   0  0  0  0  0  0  0  0  0  0  0  0
   10.2975    1.5830    1.2581 H   0  0  0  0  0  0  0  0  0  0  0  0
    8.1481    2.5746    0.4300 H   0  0  0  0  0  0  0  0  0  0  0  0
    3.0895    1.9922   -1.0334 H   0  0  0  0  0  0  0  0  0  0  0  0
    2.6403    4.2352    0.5989 H   0  0  0  0  0  0  0  0  0  0  0  0
    3.8056    3.2394    1.4768 H   0  0  0  0  0  0  0  0  0  0  0  0
    1.8802    2.2681    2.3428 H   0  0  0  0  0  0  0  0  0  0  0  0
    2.0688    1.2492    0.9181 H   0  0  0  0  0  0  0  0  0  0  0  0
    0.7682    4.6905    1.5332 H   0  0  0  0  0  0  0  0  0  0  0  0
   -0.1769    3.5630    2.5186 H   0  0  0  0  0  0  0  0  0  0  0  0
   -1.4420    3.7219   -0.0987 H   0  0  0  0  0  0  0  0  0  0  0  0
   -1.0787    5.3743    0.4432 H   0  0  0  0  0  0  0  0  0  0  0  0
   -2.3018    2.1874    1.7246 H   0  0  0  0  0  0  0  0  0  0  0  0
   -3.4419    2.9455    2.8598 H   0  0  0  0  0  0  0  0  0  0  0  0
   -4.8916    3.7400    1.0936 H   0  0  0  0  0  0  0  0  0  0  0  0
   -3.7029    3.3616   -0.1568 H   0  0  0  0  0  0  0  0  0  0  0  0
   -4.3274    1.1062   -0.1160 H   0  0  0  0  0  0  0  0  0  0  0  0
   -5.9483    2.7030    2.8477 H   0  0  0  0  0  0  0  0  0  0  0  0
   -7.9663    1.7254    3.9132 H   0  0  0  0  0  0  0  0  0  0  0  0
   -9.0106   -0.3672    2.9853 H   0  0  0  0  0  0  0  0  0  0  0  0
   -8.4906   -2.4508   -1.7127 H   0  0  0  0  0  0  0  0  0  0  0  0
   -7.3800   -4.3749   -2.5889 H   0  0  0  0  0  0  0  0  0  0  0  0
   -7.0757   -4.3874   -0.8448 H   0  0  0  0  0  0  0  0  0  0  0  0
   -4.7968   -3.4955   -1.1749 H   0  0  0  0  0  0  0  0  0  0  0  0
   -4.9890   -4.8610   -2.2626 H   0  0  0  0  0  0  0  0  0  0  0  0
   -5.5432   -1.3173   -4.3807 H   0  0  0  0  0  0  0  0  0  0  0  0
  1  2  2  0  0  0  0
  2  3  1  0  0  0  0
  2 28  1  0  0  0  0
  3  4  1  0  0  0  0
  3 57  1  0  0  0  0
  3 58  1  0  0  0  0
  4  5  1  0  0  0  0
  4 27  1  0  0  0  0
  5  6  2  0  0  0  0
  5 59  1  0  0  0  0
  6  7  1  0  0  0  0
  6 22  1  0  0  0  0
  7  8  2  0  0  0  0
  7 20  1  0  0  0  0
  8  9  1  0  0  0  0
  8 17  1  0  0  0  0
  9 10  2  0  0  0  0
  9 15  1  0  0  0  0
 10 11  1  0  0  0  0
 10 60  1  0  0  0  0
 11 12  2  0  0  0  0
 11 61  1  0  0  0  0
 12 13  1  0  0  0  0
 12 14  1  0  0  0  0
 14 15  2  0  0  0  0
 14 62  1  0  0  0  0
 15 16  1  0  0  0  0
 17 18  2  0  0  0  0
 17 19  1  0  0  0  0
 19 20  1  0  0  0  0
 19 63  1  0  0  0  0
 20 21  2  0  0  0  0
 22 23  2  0  0  0  0
 22 27  1  0  0  0  0
 23 24  1  0  0  0  0
 23 64  1  0  0  0  0
 24 25  2  0  0  0  0
 24 65  1  0  0  0  0
 25 26  1  0  0  0  0
 25 66  1  0  0  0  0
 26 27  2  0  0  0  0
 26 67  1  0  0  0  0
 28 29  1  0  0  0  0
 28 68  1  0  0  0  0
 29 30  1  0  0  0  0
 29 69  1  0  0  0  0
 29 70  1  0  0  0  0
 30 31  1  0  0  0  0
 30 71  1  0  0  0  0
 30 72  1  0  0  0  0
 31 32  1  0  0  0  0
 32 33  1  0  0  0  0
 32 73  1  0  0  0  0
 32 74  1  0  0  0  0
 33 34  1  0  0  0  0
 33 75  1  0  0  0  0
 33 76  1  0  0  0  0
 34 35  1  0  0  0  0
 35 36  1  0  0  0  0
 35 77  1  0  0  0  0
 35 78  1  0  0  0  0
 36 37  1  0  0  0  0
 36 79  1  0  0  0  0
 36 80  1  0  0  0  0
 37 38  1  0  0  0  0
 37 81  1  0  0  0  0
 38 39  2  0  0  0  0
 38 43  1  0  0  0  0
 39 40  1  0  0  0  0
 39 82  1  0  0  0  0
 40 41  2  0  0  0  0
 40 83  1  0  0  0  0
 41 42  1  0  0  0  0
 41 84  1  0  0  0  0
 42 43  2  0  0  0  0
 42 55  1  0  0  0  0
 43 44  1  0  0  0  0
 44 45  2  0  0  0  0
 44 46  1  0  0  0  0
 46 47  1  0  0  0  0
 46 55  1  0  0  0  0
 47 48  1  0  0  0  0
 47 53  1  0  0  0  0
 47 85  1  0  0  0  0
 48 49  1  0  0  0  0
 48 86  1  0  0  0  0
 48 87  1  0  0  0  0
 49 50  1  0  0  0  0
 49 88  1  0  0  0  0
 49 89  1  0  0  0  0
 50 51  2  0  0  0  0
 50 52  1  0  0  0  0
 52 53  1  0  0  0  0
 52 90  1  0  0  0  0
 53 54  2  0  0  0  0
 55 56  2  0  0  0  0
M  END
$$$$
protac3895RUN2
  chem.cr 07102519423D
protac3895RUN2
 90 96  0  0  0  0  0  0  0  0999 V2000
   -2.6988   -0.9074    4.5375 O   0  0  0  0  0  0  0  0  0  0  0  0
   -2.7174   -1.9863    3.9591 C   0  0  0  0  0  0  0  0  0  0  0  0
   -3.8653   -2.9717    4.0887 C   0  0  0  0  0  0  0  0  0  0  0  0
   -4.2556   -3.6674    2.8405 N   0  0  0  0  0  0  0  0  0  0  0  0
   -5.1777   -3.1006    1.9533 C   0  0  0  0  0  0  0  0  0  0  0  0
   -4.8792   -3.4203    0.6735 C   0  0  0  0  0  0  0  0  0  0  0  0
   -5.4731   -2.9301   -0.4596 C   0  0  0  0  0  0  0  0  0  0  0  0
   -6.6633   -2.2831   -0.5181 C   0  0  0  0  0  0  0  0  0  0  0  0
   -7.5560   -2.1010    0.5213 C   0  0  0  0  0  0  0  0  0  0  0  0
   -7.7642   -0.8097    1.0454 C   0  0  0  0  0  0  0  0  0  0  0  0
   -8.6700   -0.6111    2.1027 C   0  0  0  0  0  0  0  0  0  0  0  0
   -9.3848   -1.6993    2.6279 C   0  0  0  0  0  0  0  0  0  0  0  0
  -10.5263   -1.4529    3.9444 Cl  0  0  0  0  0  0  0  0  0  0  0  0
   -9.1997   -2.9854    2.0969 C   0  0  0  0  0  0  0  0  0  0  0  0
   -8.2922   -3.1879    1.0436 C   0  0  0  0  0  0  0  0  0  0  0  0
   -8.1083   -4.8122    0.3800 Cl  0  0  0  0  0  0  0  0  0  0  0  0
   -6.9673   -1.9129   -1.7623 C   0  0  0  0  0  0  0  0  0  0  0  0
   -7.9391   -1.3660   -2.2623 O   0  0  0  0  0  0  0  0  0  0  0  0
   -5.9216   -2.2829   -2.5847 N   0  0  0  0  0  0  0  0  0  0  0  0
   -5.0253   -2.9386   -1.7429 C   0  0  0  0  0  0  0  0  0  0  0  0
   -3.9893   -3.2967   -2.2845 O   0  0  0  0  0  0  0  0  0  0  0  0
   -3.7939   -4.3126    0.7610 C   0  0  0  0  0  0  0  0  0  0  0  0
   -3.2179   -5.1923   -0.1815 C   0  0  0  0  0  0  0  0  0  0  0  0
   -2.1877   -6.0661    0.2273 C   0  0  0  0  0  0  0  0  0  0  0  0
   -1.7805   -6.1310    1.5760 C   0  0  0  0  0  0  0  0  0  0  0  0
   -2.4239   -5.3356    2.5388 C   0  0  0  0  0  0  0  0  0  0  0  0
   -3.4149   -4.4483    2.0994 C   0  0  0  0  0  0  0  0  0  0  0  0
   -1.5308   -2.4744    3.3902 N   0  0  0  0  0  0  0  0  0  0  0  0
   -0.2034   -1.8483    3.5197 C   0  0  0  0  0  0  0  0  0  0  0  0
    0.3362   -1.4100    2.1410 C   0  0  0  0  0  0  0  0  0  0  0  0
    1.7737   -1.4186    2.1630 O   0  0  0  0  0  0  0  0  0  0  0  0
    2.4063   -0.3803    2.9286 C   0  0  0  0  0  0  0  0  0  0  0  0
    3.9339   -0.5581    2.8152 C   0  0  0  0  0  0  0  0  0  0  0  0
    4.3486   -0.1555    1.5005 O   0  0  0  0  0  0  0  0  0  0  0  0
    5.7695   -0.0508    1.3346 C   0  0  0  0  0  0  0  0  0  0  0  0
    6.0847    0.1929   -0.1561 C   0  0  0  0  0  0  0  0  0  0  0  0
    5.5466    1.4751   -0.6471 N   0  0  0  0  0  0  0  0  0  0  0  0
    4.5553    1.5839   -1.6159 C   0  0  0  0  0  0  0  0  0  0  0  0
    3.5646    0.5900   -1.8013 C   0  0  0  0  0  0  0  0  0  0  0  0
    2.5818    0.7135   -2.8148 C   0  0  0  0  0  0  0  0  0  0  0  0
    2.5562    1.8474   -3.6497 C   0  0  0  0  0  0  0  0  0  0  0  0
    3.5232    2.8360   -3.4388 C   0  0  0  0  0  0  0  0  0  0  0  0
    4.4992    2.7131   -2.4498 C   0  0  0  0  0  0  0  0  0  0  0  0
    5.2917    3.8407   -2.4895 C   0  0  0  0  0  0  0  0  0  0  0  0
    6.4389    3.9550   -2.0721 O   0  0  0  0  0  0  0  0  0  0  0  0
    4.8126    4.6780   -3.5095 N   0  0  0  0  0  0  0  0  0  0  0  0
    5.0468    6.1330   -3.6195 C   0  0  0  0  0  0  0  0  0  0  0  0
    6.1711    6.4065   -4.6334 C   0  0  0  0  0  0  0  0  0  0  0  0
    6.3759    7.9310   -4.7667 C   0  0  0  0  0  0  0  0  0  0  0  0
    6.6127    8.5867   -3.4240 C   0  0  0  0  0  0  0  0  0  0  0  0
    7.1448    9.6800   -3.3008 O   0  0  0  0  0  0  0  0  0  0  0  0
    5.9995    8.0487   -2.2855 N   0  0  0  0  0  0  0  0  0  0  0  0
    5.3048    6.8291   -2.2834 C   0  0  0  0  0  0  0  0  0  0  0  0
    4.6775    6.5877   -1.2610 O   0  0  0  0  0  0  0  0  0  0  0  0
    3.7107    4.0341   -4.0806 C   0  0  0  0  0  0  0  0  0  0  0  0
    3.1224    4.4790   -5.0598 O   0  0  0  0  0  0  0  0  0  0  0  0
   -3.6035   -3.7278    4.8375 H   0  0  0  0  0  0  0  0  0  0  0  0
   -4.7349   -2.4251    4.4717 H   0  0  0  0  0  0  0  0  0  0  0  0
   -5.9168   -2.4111    2.3480 H   0  0  0  0  0  0  0  0  0  0  0  0
   -7.2213    0.0361    0.6281 H   0  0  0  0  0  0  0  0  0  0  0  0
   -8.8254    0.3865    2.5061 H   0  0  0  0  0  0  0  0  0  0  0  0
   -9.7666   -3.8227    2.4939 H   0  0  0  0  0  0  0  0  0  0  0  0
   -6.0029   -2.4553   -3.5741 H   0  0  0  0  0  0  0  0  0  0  0  0
   -3.5737   -5.2707   -1.1989 H   0  0  0  0  0  0  0  0  0  0  0  0
   -1.7264   -6.7259   -0.5022 H   0  0  0  0  0  0  0  0  0  0  0  0
   -1.0052   -6.8315    1.8783 H   0  0  0  0  0  0  0  0  0  0  0  0
   -2.1727   -5.4199    3.5915 H   0  0  0  0  0  0  0  0  0  0  0  0
   -1.6090   -3.3059    2.8148 H   0  0  0  0  0  0  0  0  0  0  0  0
    0.4848   -2.5849    3.9560 H   0  0  0  0  0  0  0  0  0  0  0  0
   -0.2444   -0.9831    4.1971 H   0  0  0  0  0  0  0  0  0  0  0  0
   -0.0592   -0.4198    1.8757 H   0  0  0  0  0  0  0  0  0  0  0  0
   -0.0109   -2.1221    1.3826 H   0  0  0  0  0  0  0  0  0  0  0  0
    2.1193   -0.4474    3.9851 H   0  0  0  0  0  0  0  0  0  0  0  0
    2.1262    0.6143    2.5548 H   0  0  0  0  0  0  0  0  0  0  0  0
    4.2011   -1.6056    3.0053 H   0  0  0  0  0  0  0  0  0  0  0  0
    4.4229    0.0675    3.5722 H   0  0  0  0  0  0  0  0  0  0  0  0
    6.1667    0.7757    1.9380 H   0  0  0  0  0  0  0  0  0  0  0  0
    6.2627   -0.9779    1.6530 H   0  0  0  0  0  0  0  0  0  0  0  0
    7.1739    0.1950   -0.2894 H   0  0  0  0  0  0  0  0  0  0  0  0
    5.6997   -0.6470   -0.7466 H   0  0  0  0  0  0  0  0  0  0  0  0
    6.1257    2.3005   -0.5383 H   0  0  0  0  0  0  0  0  0  0  0  0
    3.5378   -0.2783   -1.1493 H   0  0  0  0  0  0  0  0  0  0  0  0
    1.8400   -0.0694   -2.9437 H   0  0  0  0  0  0  0  0  0  0  0  0
    1.8039    1.9635   -4.4258 H   0  0  0  0  0  0  0  0  0  0  0  0
    4.1252    6.5800   -4.0142 H   0  0  0  0  0  0  0  0  0  0  0  0
    5.9152    5.9574   -5.6020 H   0  0  0  0  0  0  0  0  0  0  0  0
    7.0973    5.9275   -4.2854 H   0  0  0  0  0  0  0  0  0  0  0  0
    7.2278    8.1410   -5.4268 H   0  0  0  0  0  0  0  0  0  0  0  0
    5.4957    8.3952   -5.2323 H   0  0  0  0  0  0  0  0  0  0  0  0
    6.0831    8.5503   -1.4137 H   0  0  0  0  0  0  0  0  0  0  0  0
  1  2  2  0  0  0  0
  2  3  1  0  0  0  0
  2 28  1  0  0  0  0
  3  4  1  0  0  0  0
  3 57  1  0  0  0  0
  3 58  1  0  0  0  0
  4  5  1  0  0  0  0
  4 27  1  0  0  0  0
  5  6  2  0  0  0  0
  5 59  1  0  0  0  0
  6  7  1  0  0  0  0
  6 22  1  0  0  0  0
  7  8  2  0  0  0  0
  7 20  1  0  0  0  0
  8  9  1  0  0  0  0
  8 17  1  0  0  0  0
  9 10  2  0  0  0  0
  9 15  1  0  0  0  0
 10 11  1  0  0  0  0
 10 60  1  0  0  0  0
 11 12  2  0  0  0  0
 11 61  1  0  0  0  0
 12 13  1  0  0  0  0
 12 14  1  0  0  0  0
 14 15  2  0  0  0  0
 14 62  1  0  0  0  0
 15 16  1  0  0  0  0
 17 18  2  0  0  0  0
 17 19  1  0  0  0  0
 19 20  1  0  0  0  0
 19 63  1  0  0  0  0
 20 21  2  0  0  0  0
 22 23  2  0  0  0  0
 22 27  1  0  0  0  0
 23 24  1  0  0  0  0
 23 64  1  0  0  0  0
 24 25  2  0  0  0  0
 24 65  1  0  0  0  0
 25 26  1  0  0  0  0
 25 66  1  0  0  0  0
 26 27  2  0  0  0  0
 26 67  1  0  0  0  0
 28 29  1  0  0  0  0
 28 68  1  0  0  0  0
 29 30  1  0  0  0  0
 29 69  1  0  0  0  0
 29 70  1  0  0  0  0
 30 31  1  0  0  0  0
 30 71  1  0  0  0  0
 30 72  1  0  0  0  0
 31 32  1  0  0  0  0
 32 33  1  0  0  0  0
 32 73  1  0  0  0  0
 32 74  1  0  0  0  0
 33 34  1  0  0  0  0
 33 75  1  0  0  0  0
 33 76  1  0  0  0  0
 34 35  1  0  0  0  0
 35 36  1  0  0  0  0
 35 77  1  0  0  0  0
 35 78  1  0  0  0  0
 36 37  1  0  0  0  0
 36 79  1  0  0  0  0
 36 80  1  0  0  0  0
 37 38  1  0  0  0  0
 37 81  1  0  0  0  0
 38 39  2  0  0  0  0
 38 43  1  0  0  0  0
 39 40  1  0  0  0  0
 39 82  1  0  0  0  0
 40 41  2  0  0  0  0
 40 83  1  0  0  0  0
 41 42  1  0  0  0  0
 41 84  1  0  0  0  0
 42 43  2  0  0  0  0
 42 55  1  0  0  0  0
 43 44  1  0  0  0  0
 44 45  2  0  0  0  0
 44 46  1  0  0  0  0
 46 47  1  0  0  0  0
 46 55  1  0  0  0  0
 47 48  1  0  0  0  0
 47 53  1  0  0  0  0
 47 85  1  0  0  0  0
 48 49  1  0  0  0  0
 48 86  1  0  0  0  0
 48 87  1  0  0  0  0
 49 50  1  0  0  0  0
 49 88  1  0  0  0  0
 49 89  1  0  0  0  0
 50 51  2  0  0  0  0
 50 52  1  0  0  0  0
 52 53  1  0  0  0  0
 52 90  1  0  0  0  0
 53 54  2  0  0  0  0
 55 56  2  0  0  0  0
M  END
$$$$
protac3895RUN2
  chem.cr 07102519423D
protac3895RUN2
 90 96  0  0  0  0  0  0  0  0999 V2000
   -5.0568   -2.0480    1.4488 O   0  0  0  0  0  0  0  0  0  0  0  0
   -5.0914   -1.2676    0.5103 C   0  0  0  0  0  0  0  0  0  0  0  0
   -6.0023   -0.0567    0.5180 C   0  0  0  0  0  0  0  0  0  0  0  0
   -5.4630    1.1316   -0.1716 N   0  0  0  0  0  0  0  0  0  0  0  0
   -4.7967    2.1846    0.4656 C   0  0  0  0  0  0  0  0  0  0  0  0
   -4.6806    3.2407   -0.3769 C   0  0  0  0  0  0  0  0  0  0  0  0
   -4.2499    4.5055   -0.0778 C   0  0  0  0  0  0  0  0  0  0  0  0
   -3.5973    4.8836    1.0514 C   0  0  0  0  0  0  0  0  0  0  0  0
   -3.1602    4.0579    2.0708 C   0  0  0  0  0  0  0  0  0  0  0  0
   -2.0748    3.1913    1.8372 C   0  0  0  0  0  0  0  0  0  0  0  0
   -1.5881    2.3589    2.8602 C   0  0  0  0  0  0  0  0  0  0  0  0
   -2.1782    2.4037    4.1342 C   0  0  0  0  0  0  0  0  0  0  0  0
   -1.5544    1.3938    5.4311 Cl  0  0  0  0  0  0  0  0  0  0  0  0
   -3.2589    3.2672    4.3799 C   0  0  0  0  0  0  0  0  0  0  0  0
   -3.7532    4.0900    3.3534 C   0  0  0  0  0  0  0  0  0  0  0  0
   -5.1202    5.1498    3.7002 Cl  0  0  0  0  0  0  0  0  0  0  0  0
   -3.3236    6.1916    1.0577 C   0  0  0  0  0  0  0  0  0  0  0  0
   -2.7187    6.9235    1.8262 O   0  0  0  0  0  0  0  0  0  0  0  0
   -3.8533    6.7326   -0.0960 N   0  0  0  0  0  0  0  0  0  0  0  0
   -4.4074    5.6577   -0.7845 C   0  0  0  0  0  0  0  0  0  0  0  0
   -4.9953    5.9606   -1.8124 O   0  0  0  0  0  0  0  0  0  0  0  0
   -5.1863    2.7872   -1.6108 C   0  0  0  0  0  0  0  0  0  0  0  0
   -5.0361    3.2779   -2.9247 C   0  0  0  0  0  0  0  0  0  0  0  0
   -5.5858    2.5531   -4.0043 C   0  0  0  0  0  0  0  0  0  0  0  0
   -6.2283    1.3143   -3.7935 C   0  0  0  0  0  0  0  0  0  0  0  0
   -6.2747    0.7605   -2.5035 C   0  0  0  0  0  0  0  0  0  0  0  0
   -5.7287    1.5099   -1.4535 C   0  0  0  0  0  0  0  0  0  0  0  0
   -4.7749   -1.8276   -0.7332 N   0  0  0  0  0  0  0  0  0  0  0  0
   -3.6639   -1.2939   -1.5383 C   0  0  0  0  0  0  0  0  0  0  0  0
   -2.2981   -1.7198   -0.9537 C   0  0  0  0  0  0  0  0  0  0  0  0
   -1.2795   -0.7761   -1.3242 O   0  0  0  0  0  0  0  0  0  0  0  0
   -1.3844    0.5389   -0.7459 C   0  0  0  0  0  0  0  0  0  0  0  0
    0.0195    1.1691   -0.7461 C   0  0  0  0  0  0  0  0  0  0  0  0
    0.7489    0.5985    0.3477 O   0  0  0  0  0  0  0  0  0  0  0  0
    2.0513    1.1530    0.5597 C   0  0  0  0  0  0  0  0  0  0  0  0
    2.7293    0.3605    1.6964 C   0  0  0  0  0  0  0  0  0  0  0  0
    3.6166   -0.6844    1.1615 N   0  0  0  0  0  0  0  0  0  0  0  0
    3.2346   -1.9378    0.6955 C   0  0  0  0  0  0  0  0  0  0  0  0
    1.9114   -2.4312    0.7849 C   0  0  0  0  0  0  0  0  0  0  0  0
    1.5817   -3.7252    0.3143 C   0  0  0  0  0  0  0  0  0  0  0  0
    2.5698   -4.5538   -0.2594 C   0  0  0  0  0  0  0  0  0  0  0  0
    3.8707   -4.0468   -0.3631 C   0  0  0  0  0  0  0  0  0  0  0  0
    4.1948   -2.7731    0.1046 C   0  0  0  0  0  0  0  0  0  0  0  0
    5.5380   -2.5673   -0.1123 C   0  0  0  0  0  0  0  0  0  0  0  0
    6.2542   -1.7186    0.4094 O   0  0  0  0  0  0  0  0  0  0  0  0
    6.0676   -3.7298   -0.6875 N   0  0  0  0  0  0  0  0  0  0  0  0
    7.4992   -4.0697   -0.8269 C   0  0  0  0  0  0  0  0  0  0  0  0
    8.1055   -4.3831    0.5575 C   0  0  0  0  0  0  0  0  0  0  0  0
    9.6020   -4.7249    0.4133 C   0  0  0  0  0  0  0  0  0  0  0  0
   10.3536   -3.6648   -0.3612 C   0  0  0  0  0  0  0  0  0  0  0  0
   11.5592   -3.4971   -0.2632 O   0  0  0  0  0  0  0  0  0  0  0  0
    9.6948   -2.9658   -1.3810 N   0  0  0  0  0  0  0  0  0  0  0  0
    8.3047   -3.0030   -1.5623 C   0  0  0  0  0  0  0  0  0  0  0  0
    7.8835   -2.3787   -2.5261 O   0  0  0  0  0  0  0  0  0  0  0  0
    5.0100   -4.6287   -0.8681 C   0  0  0  0  0  0  0  0  0  0  0  0
    5.2003   -5.8150   -1.1166 O   0  0  0  0  0  0  0  0  0  0  0  0
   -6.9589   -0.3317    0.0590 H   0  0  0  0  0  0  0  0  0  0  0  0
   -6.2164    0.2067    1.5596 H   0  0  0  0  0  0  0  0  0  0  0  0
   -4.5772    2.0976    1.5260 H   0  0  0  0  0  0  0  0  0  0  0  0
   -1.6097    3.1742    0.8563 H   0  0  0  0  0  0  0  0  0  0  0  0
   -0.7469    1.6956    2.6715 H   0  0  0  0  0  0  0  0  0  0  0  0
   -3.7031    3.3093    5.3702 H   0  0  0  0  0  0  0  0  0  0  0  0
   -3.6277    7.6338   -0.4864 H   0  0  0  0  0  0  0  0  0  0  0  0
   -4.4612    4.1650   -3.1493 H   0  0  0  0  0  0  0  0  0  0  0  0
   -5.4886    2.9413   -5.0150 H   0  0  0  0  0  0  0  0  0  0  0  0
   -6.6389    0.7662   -4.6386 H   0  0  0  0  0  0  0  0  0  0  0  0
   -6.6924   -0.2275   -2.3380 H   0  0  0  0  0  0  0  0  0  0  0  0
   -4.9438   -2.8237   -0.8013 H   0  0  0  0  0  0  0  0  0  0  0  0
   -3.7376   -0.2029   -1.5839 H   0  0  0  0  0  0  0  0  0  0  0  0
   -3.7484   -1.6645   -2.5691 H   0  0  0  0  0  0  0  0  0  0  0  0
   -2.0396   -2.7180   -1.3301 H   0  0  0  0  0  0  0  0  0  0  0  0
   -2.3553   -1.7861    0.1406 H   0  0  0  0  0  0  0  0  0  0  0  0
   -1.7622    0.4923    0.2834 H   0  0  0  0  0  0  0  0  0  0  0  0
   -2.0649    1.1682   -1.3357 H   0  0  0  0  0  0  0  0  0  0  0  0
   -0.0632    2.2556   -0.6247 H   0  0  0  0  0  0  0  0  0  0  0  0
    0.5186    0.9657   -1.7024 H   0  0  0  0  0  0  0  0  0  0  0  0
    2.6607    1.1030   -0.3537 H   0  0  0  0  0  0  0  0  0  0  0  0
    1.9631    2.2059    0.8600 H   0  0  0  0  0  0  0  0  0  0  0  0
    3.3275    1.0567    2.2985 H   0  0  0  0  0  0  0  0  0  0  0  0
    1.9698   -0.0684    2.3632 H   0  0  0  0  0  0  0  0  0  0  0  0
    4.6063   -0.4746    1.0702 H   0  0  0  0  0  0  0  0  0  0  0  0
    1.1252   -1.8196    1.2133 H   0  0  0  0  0  0  0  0  0  0  0  0
    0.5597   -4.0841    0.3980 H   0  0  0  0  0  0  0  0  0  0  0  0
    2.3334   -5.5529   -0.6157 H   0  0  0  0  0  0  0  0  0  0  0  0
    7.5657   -4.9753   -1.4443 H   0  0  0  0  0  0  0  0  0  0  0  0
    7.5565   -5.2071    1.0335 H   0  0  0  0  0  0  0  0  0  0  0  0
    7.9955   -3.5056    1.2081 H   0  0  0  0  0  0  0  0  0  0  0  0
   10.0547   -4.8332    1.4080 H   0  0  0  0  0  0  0  0  0  0  0  0
    9.7222   -5.6901   -0.0931 H   0  0  0  0  0  0  0  0  0  0  0  0
   10.2348   -2.3322   -1.9516 H   0  0  0  0  0  0  0  0  0  0  0  0
  1  2  2  0  0  0  0
  2  3  1  0  0  0  0
  2 28  1  0  0  0  0
  3  4  1  0  0  0  0
  3 57  1  0  0  0  0
  3 58  1  0  0  0  0
  4  5  1  0  0  0  0
  4 27  1  0  0  0  0
  5  6  2  0  0  0  0
  5 59  1  0  0  0  0
  6  7  1  0  0  0  0
  6 22  1  0  0  0  0
  7  8  2  0  0  0  0
  7 20  1  0  0  0  0
  8  9  1  0  0  0  0
  8 17  1  0  0  0  0
  9 10  2  0  0  0  0
  9 15  1  0  0  0  0
 10 11  1  0  0  0  0
 10 60  1  0  0  0  0
 11 12  2  0  0  0  0
 11 61  1  0  0  0  0
 12 13  1  0  0  0  0
 12 14  1  0  0  0  0
 14 15  2  0  0  0  0
 14 62  1  0  0  0  0
 15 16  1  0  0  0  0
 17 18  2  0  0  0  0
 17 19  1  0  0  0  0
 19 20  1  0  0  0  0
 19 63  1  0  0  0  0
 20 21  2  0  0  0  0
 22 23  2  0  0  0  0
 22 27  1  0  0  0  0
 23 24  1  0  0  0  0
 23 64  1  0  0  0  0
 24 25  2  0  0  0  0
 24 65  1  0  0  0  0
 25 26  1  0  0  0  0
 25 66  1  0  0  0  0
 26 27  2  0  0  0  0
 26 67  1  0  0  0  0
 28 29  1  0  0  0  0
 28 68  1  0  0  0  0
 29 30  1  0  0  0  0
 29 69  1  0  0  0  0
 29 70  1  0  0  0  0
 30 31  1  0  0  0  0
 30 71  1  0  0  0  0
 30 72  1  0  0  0  0
 31 32  1  0  0  0  0
 32 33  1  0  0  0  0
 32 73  1  0  0  0  0
 32 74  1  0  0  0  0
 33 34  1  0  0  0  0
 33 75  1  0  0  0  0
 33 76  1  0  0  0  0
 34 35  1  0  0  0  0
 35 36  1  0  0  0  0
 35 77  1  0  0  0  0
 35 78  1  0  0  0  0
 36 37  1  0  0  0  0
 36 79  1  0  0  0  0
 36 80  1  0  0  0  0
 37 38  1  0  0  0  0
 37 81  1  0  0  0  0
 38 39  2  0  0  0  0
 38 43  1  0  0  0  0
 39 40  1  0  0  0  0
 39 82  1  0  0  0  0
 40 41  2  0  0  0  0
 40 83  1  0  0  0  0
 41 42  1  0  0  0  0
 41 84  1  0  0  0  0
 42 43  2  0  0  0  0
 42 55  1  0  0  0  0
 43 44  1  0  0  0  0
 44 45  2  0  0  0  0
 44 46  1  0  0  0  0
 46 47  1  0  0  0  0
 46 55  1  0  0  0  0
 47 48  1  0  0  0  0
 47 53  1  0  0  0  0
 47 85  1  0  0  0  0
 48 49  1  0  0  0  0
 48 86  1  0  0  0  0
 48 87  1  0  0  0  0
 49 50  1  0  0  0  0
 49 88  1  0  0  0  0
 49 89  1  0  0  0  0
 50 51  2  0  0  0  0
 50 52  1  0  0  0  0
 52 53  1  0  0  0  0
 52 90  1  0  0  0  0
 53 54  2  0  0  0  0
 55 56  2  0  0  0  0
M  END
$$$$
protac3895RUN2
  chem.cr 07102519423D
protac3895RUN2
 90 96  0  0  0  0  0  0  0  0999 V2000
   -4.4285   -1.5698    1.5016 O   0  0  0  0  0  0  0  0  0  0  0  0
   -3.9870   -0.6093    0.8919 C   0  0  0  0  0  0  0  0  0  0  0  0
   -3.6550    0.7006    1.5730 C   0  0  0  0  0  0  0  0  0  0  0  0
   -3.8034    1.9059    0.7331 N   0  0  0  0  0  0  0  0  0  0  0  0
   -2.7030    2.6227    0.2677 C   0  0  0  0  0  0  0  0  0  0  0  0
   -3.0388    3.4023   -0.7871 C   0  0  0  0  0  0  0  0  0  0  0  0
   -2.2678    4.3726   -1.3858 C   0  0  0  0  0  0  0  0  0  0  0  0
   -0.9823    4.6923   -1.0746 C   0  0  0  0  0  0  0  0  0  0  0  0
   -0.1934    4.1536   -0.0675 C   0  0  0  0  0  0  0  0  0  0  0  0
    0.8389    3.2486   -0.3834 C   0  0  0  0  0  0  0  0  0  0  0  0
    1.6676    2.7246    0.6262 C   0  0  0  0  0  0  0  0  0  0  0  0
    1.4630    3.0986    1.9615 C   0  0  0  0  0  0  0  0  0  0  0  0
    2.4799    2.4246    3.2264 Cl  0  0  0  0  0  0  0  0  0  0  0  0
    0.4509    4.0115    2.2890 C   0  0  0  0  0  0  0  0  0  0  0  0
   -0.3628    4.5529    1.2785 C   0  0  0  0  0  0  0  0  0  0  0  0
   -1.6231    5.6957    1.7322 Cl  0  0  0  0  0  0  0  0  0  0  0  0
   -0.5261    5.7000   -1.8221 C   0  0  0  0  0  0  0  0  0  0  0  0
    0.5306    6.3163   -1.8481 O   0  0  0  0  0  0  0  0  0  0  0  0
   -1.5243    6.0794   -2.6944 N   0  0  0  0  0  0  0  0  0  0  0  0
   -2.6040    5.2746   -2.3484 C   0  0  0  0  0  0  0  0  0  0  0  0
   -3.6429    5.5823   -2.9141 O   0  0  0  0  0  0  0  0  0  0  0  0
   -4.3718    3.0348   -1.0900 C   0  0  0  0  0  0  0  0  0  0  0  0
   -5.1875    3.2028   -2.2340 C   0  0  0  0  0  0  0  0  0  0  0  0
   -6.4957    2.6679   -2.2509 C   0  0  0  0  0  0  0  0  0  0  0  0
   -6.9782    1.9043   -1.1695 C   0  0  0  0  0  0  0  0  0  0  0  0
   -6.1347    1.6190   -0.0861 C   0  0  0  0  0  0  0  0  0  0  0  0
   -4.8511    2.1775   -0.0936 C   0  0  0  0  0  0  0  0  0  0  0  0
   -3.3007   -0.9021   -0.2871 N   0  0  0  0  0  0  0  0  0  0  0  0
   -4.0198   -0.8197   -1.5663 C   0  0  0  0  0  0  0  0  0  0  0  0
   -3.1395   -1.1571   -2.7859 C   0  0  0  0  0  0  0  0  0  0  0  0
   -3.1404   -2.5861   -3.0064 O   0  0  0  0  0  0  0  0  0  0  0  0
   -2.3764   -3.4373   -2.1217 C   0  0  0  0  0  0  0  0  0  0  0  0
   -0.8690   -3.2920   -2.4267 C   0  0  0  0  0  0  0  0  0  0  0  0
   -0.3795   -2.1093   -1.7818 O   0  0  0  0  0  0  0  0  0  0  0  0
    0.7844   -1.5457   -2.3972 C   0  0  0  0  0  0  0  0  0  0  0  0
    1.1272   -0.2436   -1.6476 C   0  0  0  0  0  0  0  0  0  0  0  0
    2.0570   -0.5290   -0.5448 N   0  0  0  0  0  0  0  0  0  0  0  0
    3.4125   -0.7614   -0.7413 C   0  0  0  0  0  0  0  0  0  0  0  0
    4.1780   -0.0793   -1.7172 C   0  0  0  0  0  0  0  0  0  0  0  0
    5.5556   -0.3661   -1.9032 C   0  0  0  0  0  0  0  0  0  0  0  0
    6.1905   -1.3457   -1.1127 C   0  0  0  0  0  0  0  0  0  0  0  0
    5.4262   -2.0005   -0.1401 C   0  0  0  0  0  0  0  0  0  0  0  0
    4.0752   -1.7148    0.0374 C   0  0  0  0  0  0  0  0  0  0  0  0
    3.6075   -2.5052    1.0566 C   0  0  0  0  0  0  0  0  0  0  0  0
    2.4708   -2.5592    1.5139 O   0  0  0  0  0  0  0  0  0  0  0  0
    4.6593   -3.2914    1.5545 N   0  0  0  0  0  0  0  0  0  0  0  0
    4.7706   -3.6961    2.9716 C   0  0  0  0  0  0  0  0  0  0  0  0
    3.8501   -4.8982    3.2765 C   0  0  0  0  0  0  0  0  0  0  0  0
    3.8701   -5.2018    4.7880 C   0  0  0  0  0  0  0  0  0  0  0  0
    3.4959   -3.9811    5.5979 C   0  0  0  0  0  0  0  0  0  0  0  0
    2.9823   -4.0365    6.7036 O   0  0  0  0  0  0  0  0  0  0  0  0
    3.9513   -2.7300    5.1695 N   0  0  0  0  0  0  0  0  0  0  0  0
    4.5363   -2.5159    3.9147 C   0  0  0  0  0  0  0  0  0  0  0  0
    5.0236   -1.4060    3.7451 O   0  0  0  0  0  0  0  0  0  0  0  0
    5.7844   -2.9597    0.7825 C   0  0  0  0  0  0  0  0  0  0  0  0
    6.8547   -3.5479    0.8920 O   0  0  0  0  0  0  0  0  0  0  0  0
   -4.3177    0.8127    2.4402 H   0  0  0  0  0  0  0  0  0  0  0  0
   -2.6290    0.6440    1.9521 H   0  0  0  0  0  0  0  0  0  0  0  0
   -1.7810    2.5405    0.8287 H   0  0  0  0  0  0  0  0  0  0  0  0
    1.0033    2.9561   -1.4146 H   0  0  0  0  0  0  0  0  0  0  0  0
    2.4776    2.0422    0.3821 H   0  0  0  0  0  0  0  0  0  0  0  0
    0.3056    4.3087    3.3248 H   0  0  0  0  0  0  0  0  0  0  0  0
   -1.6390    7.0249   -3.0261 H   0  0  0  0  0  0  0  0  0  0  0  0
   -4.8305    3.6770   -3.1334 H   0  0  0  0  0  0  0  0  0  0  0  0
   -7.1308    2.8261   -3.1194 H   0  0  0  0  0  0  0  0  0  0  0  0
   -7.9841    1.4912   -1.1993 H   0  0  0  0  0  0  0  0  0  0  0  0
   -6.4601    0.9652    0.7150 H   0  0  0  0  0  0  0  0  0  0  0  0
   -2.6024   -1.6319   -0.2179 H   0  0  0  0  0  0  0  0  0  0  0  0
   -4.4072    0.1988   -1.6886 H   0  0  0  0  0  0  0  0  0  0  0  0
   -4.8815   -1.5015   -1.5435 H   0  0  0  0  0  0  0  0  0  0  0  0
   -2.1338   -0.7458   -2.6610 H   0  0  0  0  0  0  0  0  0  0  0  0
   -3.5720   -0.6655   -3.6668 H   0  0  0  0  0  0  0  0  0  0  0  0
   -2.6555   -4.4791   -2.3151 H   0  0  0  0  0  0  0  0  0  0  0  0
   -2.5934   -3.2417   -1.0667 H   0  0  0  0  0  0  0  0  0  0  0  0
   -0.7386   -3.2410   -3.5160 H   0  0  0  0  0  0  0  0  0  0  0  0
   -0.3267   -4.1710   -2.0532 H   0  0  0  0  0  0  0  0  0  0  0  0
    1.6284   -2.2496   -2.3629 H   0  0  0  0  0  0  0  0  0  0  0  0
    0.5728   -1.3047   -3.4466 H   0  0  0  0  0  0  0  0  0  0  0  0
    1.5677    0.4790   -2.3458 H   0  0  0  0  0  0  0  0  0  0  0  0
    0.2052    0.2031   -1.2536 H   0  0  0  0  0  0  0  0  0  0  0  0
    1.6694   -1.0206    0.2566 H   0  0  0  0  0  0  0  0  0  0  0  0
    3.7170    0.6872   -2.3328 H   0  0  0  0  0  0  0  0  0  0  0  0
    6.1284    0.1670   -2.6598 H   0  0  0  0  0  0  0  0  0  0  0  0
    7.2433   -1.5762   -1.2405 H   0  0  0  0  0  0  0  0  0  0  0  0
    5.8034   -4.0207    3.1484 H   0  0  0  0  0  0  0  0  0  0  0  0
    4.1672   -5.7744    2.6966 H   0  0  0  0  0  0  0  0  0  0  0  0
    2.8214   -4.6717    2.9637 H   0  0  0  0  0  0  0  0  0  0  0  0
    3.1760   -6.0186    5.0206 H   0  0  0  0  0  0  0  0  0  0  0  0
    4.8650   -5.5425    5.0973 H   0  0  0  0  0  0  0  0  0  0  0  0
    3.8197   -1.9341    5.7779 H   0  0  0  0  0  0  0  0  0  0  0  0
  1  2  2  0  0  0  0
  2  3  1  0  0  0  0
  2 28  1  0  0  0  0
  3  4  1  0  0  0  0
  3 57  1  0  0  0  0
  3 58  1  0  0  0  0
  4  5  1  0  0  0  0
  4 27  1  0  0  0  0
  5  6  2  0  0  0  0
  5 59  1  0  0  0  0
  6  7  1  0  0  0  0
  6 22  1  0  0  0  0
  7  8  2  0  0  0  0
  7 20  1  0  0  0  0
  8  9  1  0  0  0  0
  8 17  1  0  0  0  0
  9 10  2  0  0  0  0
  9 15  1  0  0  0  0
 10 11  1  0  0  0  0
 10 60  1  0  0  0  0
 11 12  2  0  0  0  0
 11 61  1  0  0  0  0
 12 13  1  0  0  0  0
 12 14  1  0  0  0  0
 14 15  2  0  0  0  0
 14 62  1  0  0  0  0
 15 16  1  0  0  0  0
 17 18  2  0  0  0  0
 17 19  1  0  0  0  0
 19 20  1  0  0  0  0
 19 63  1  0  0  0  0
 20 21  2  0  0  0  0
 22 23  2  0  0  0  0
 22 27  1  0  0  0  0
 23 24  1  0  0  0  0
 23 64  1  0  0  0  0
 24 25  2  0  0  0  0
 24 65  1  0  0  0  0
 25 26  1  0  0  0  0
 25 66  1  0  0  0  0
 26 27  2  0  0  0  0
 26 67  1  0  0  0  0
 28 29  1  0  0  0  0
 28 68  1  0  0  0  0
 29 30  1  0  0  0  0
 29 69  1  0  0  0  0
 29 70  1  0  0  0  0
 30 31  1  0  0  0  0
 30 71  1  0  0  0  0
 30 72  1  0  0  0  0
 31 32  1  0  0  0  0
 32 33  1  0  0  0  0
 32 73  1  0  0  0  0
 32 74  1  0  0  0  0
 33 34  1  0  0  0  0
 33 75  1  0  0  0  0
 33 76  1  0  0  0  0
 34 35  1  0  0  0  0
 35 36  1  0  0  0  0
 35 77  1  0  0  0  0
 35 78  1  0  0  0  0
 36 37  1  0  0  0  0
 36 79  1  0  0  0  0
 36 80  1  0  0  0  0
 37 38  1  0  0  0  0
 37 81  1  0  0  0  0
 38 39  2  0  0  0  0
 38 43  1  0  0  0  0
 39 40  1  0  0  0  0
 39 82  1  0  0  0  0
 40 41  2  0  0  0  0
 40 83  1  0  0  0  0
 41 42  1  0  0  0  0
 41 84  1  0  0  0  0
 42 43  2  0  0  0  0
 42 55  1  0  0  0  0
 43 44  1  0  0  0  0
 44 45  2  0  0  0  0
 44 46  1  0  0  0  0
 46 47  1  0  0  0  0
 46 55  1  0  0  0  0
 47 48  1  0  0  0  0
 47 53  1  0  0  0  0
 47 85  1  0  0  0  0
 48 49  1  0  0  0  0
 48 86  1  0  0  0  0
 48 87  1  0  0  0  0
 49 50  1  0  0  0  0
 49 88  1  0  0  0  0
 49 89  1  0  0  0  0
 50 51  2  0  0  0  0
 50 52  1  0  0  0  0
 52 53  1  0  0  0  0
 52 90  1  0  0  0  0
 53 54  2  0  0  0  0
 55 56  2  0  0  0  0
M  END
$$$$
protac3895RUN2
  chem.cr 07102519423D
protac3895RUN2
 90 96  0  0  0  0  0  0  0  0999 V2000
    0.9510   -0.6734    1.4688 O   0  0  0  0  0  0  0  0  0  0  0  0
    1.5884   -1.4625    0.7845 C   0  0  0  0  0  0  0  0  0  0  0  0
    3.0850   -1.3742    0.5797 C   0  0  0  0  0  0  0  0  0  0  0  0
    3.4911   -1.3510   -0.8409 N   0  0  0  0  0  0  0  0  0  0  0  0
    3.5077   -2.5327   -1.5972 C   0  0  0  0  0  0  0  0  0  0  0  0
    3.0693   -2.3083   -2.8570 C   0  0  0  0  0  0  0  0  0  0  0  0
    2.7576   -3.2379   -3.8156 C   0  0  0  0  0  0  0  0  0  0  0  0
    3.0293   -4.5642   -3.7676 C   0  0  0  0  0  0  0  0  0  0  0  0
    3.7281   -5.2338   -2.7794 C   0  0  0  0  0  0  0  0  0  0  0  0
    3.0284   -6.0002   -1.8292 C   0  0  0  0  0  0  0  0  0  0  0  0
    3.7279   -6.6838   -0.8192 C   0  0  0  0  0  0  0  0  0  0  0  0
    5.1290   -6.6120   -0.7659 C   0  0  0  0  0  0  0  0  0  0  0  0
    6.0006   -7.4745    0.4933 Cl  0  0  0  0  0  0  0  0  0  0  0  0
    5.8353   -5.8634   -1.7208 C   0  0  0  0  0  0  0  0  0  0  0  0
    5.1374   -5.1750   -2.7275 C   0  0  0  0  0  0  0  0  0  0  0  0
    6.0471   -4.2487   -3.9224 Cl  0  0  0  0  0  0  0  0  0  0  0  0
    2.5495   -5.2105   -4.8285 C   0  0  0  0  0  0  0  0  0  0  0  0
    2.5523   -6.3876   -5.1702 O   0  0  0  0  0  0  0  0  0  0  0  0
    1.9417   -4.2865   -5.6535 N   0  0  0  0  0  0  0  0  0  0  0  0
    2.0554   -3.0769   -4.9694 C   0  0  0  0  0  0  0  0  0  0  0  0
    1.4284   -2.1516   -5.4655 O   0  0  0  0  0  0  0  0  0  0  0  0
    2.9295   -0.9135   -2.9505 C   0  0  0  0  0  0  0  0  0  0  0  0
    2.8622   -0.0467   -4.0659 C   0  0  0  0  0  0  0  0  0  0  0  0
    2.8413    1.3500   -3.8598 C   0  0  0  0  0  0  0  0  0  0  0  0
    2.9526    1.8932   -2.5618 C   0  0  0  0  0  0  0  0  0  0  0  0
    3.1409    1.0391   -1.4601 C   0  0  0  0  0  0  0  0  0  0  0  0
    3.1431   -0.3419   -1.6947 C   0  0  0  0  0  0  0  0  0  0  0  0
    0.9352   -2.5555    0.1945 N   0  0  0  0  0  0  0  0  0  0  0  0
   -0.5219   -2.7348    0.2191 C   0  0  0  0  0  0  0  0  0  0  0  0
   -0.9242   -4.2238    0.1409 C   0  0  0  0  0  0  0  0  0  0  0  0
   -2.1289   -4.3820   -0.6334 O   0  0  0  0  0  0  0  0  0  0  0  0
   -3.3967   -4.0644   -0.0156 C   0  0  0  0  0  0  0  0  0  0  0  0
   -3.7602   -2.5768   -0.2365 C   0  0  0  0  0  0  0  0  0  0  0  0
   -3.2631   -1.8152    0.8690 O   0  0  0  0  0  0  0  0  0  0  0  0
   -3.4175   -0.3997    0.7427 C   0  0  0  0  0  0  0  0  0  0  0  0
   -2.7561    0.2318    1.9793 C   0  0  0  0  0  0  0  0  0  0  0  0
   -2.8931    1.6980    1.9619 N   0  0  0  0  0  0  0  0  0  0  0  0
   -2.0476    2.5858    1.3027 C   0  0  0  0  0  0  0  0  0  0  0  0
   -1.0128    2.1657    0.4314 C   0  0  0  0  0  0  0  0  0  0  0  0
   -0.1750    3.1058   -0.2189 C   0  0  0  0  0  0  0  0  0  0  0  0
   -0.3533    4.4897   -0.0122 C   0  0  0  0  0  0  0  0  0  0  0  0
   -1.3775    4.8962    0.8486 C   0  0  0  0  0  0  0  0  0  0  0  0
   -2.2016    3.9695    1.4913 C   0  0  0  0  0  0  0  0  0  0  0  0
   -3.0778    4.6627    2.2992 C   0  0  0  0  0  0  0  0  0  0  0  0
   -3.7350    4.2057    3.2275 O   0  0  0  0  0  0  0  0  0  0  0  0
   -2.7805    6.0322    2.1855 N   0  0  0  0  0  0  0  0  0  0  0  0
   -3.3656    7.1657    2.9460 C   0  0  0  0  0  0  0  0  0  0  0  0
   -2.4208    7.6086    4.0857 C   0  0  0  0  0  0  0  0  0  0  0  0
   -2.4966    6.5953    5.2470 C   0  0  0  0  0  0  0  0  0  0  0  0
   -3.9190    6.3728    5.7099 C   0  0  0  0  0  0  0  0  0  0  0  0
   -4.2180    6.1389    6.8716 O   0  0  0  0  0  0  0  0  0  0  0  0
   -4.9772    6.6010    4.8179 N   0  0  0  0  0  0  0  0  0  0  0  0
   -4.7787    6.9080    3.4613 C   0  0  0  0  0  0  0  0  0  0  0  0
   -5.7853    7.1584    2.8115 O   0  0  0  0  0  0  0  0  0  0  0  0
   -1.7487    6.1571    1.2506 C   0  0  0  0  0  0  0  0  0  0  0  0
   -1.1751    7.2210    1.0430 O   0  0  0  0  0  0  0  0  0  0  0  0
    3.4469   -0.4567    1.0579 H   0  0  0  0  0  0  0  0  0  0  0  0
    3.5719   -2.2186    1.0849 H   0  0  0  0  0  0  0  0  0  0  0  0
    3.7245   -3.4642   -1.0847 H   0  0  0  0  0  0  0  0  0  0  0  0
    1.9445   -6.0685   -1.8776 H   0  0  0  0  0  0  0  0  0  0  0  0
    3.1894   -7.2774   -0.0857 H   0  0  0  0  0  0  0  0  0  0  0  0
    6.9221   -5.8242   -1.6916 H   0  0  0  0  0  0  0  0  0  0  0  0
    1.2024   -4.5005   -6.3057 H   0  0  0  0  0  0  0  0  0  0  0  0
    2.8918   -0.4106   -5.0826 H   0  0  0  0  0  0  0  0  0  0  0  0
    2.7708    2.0173   -4.7149 H   0  0  0  0  0  0  0  0  0  0  0  0
    2.9568    2.9713   -2.4221 H   0  0  0  0  0  0  0  0  0  0  0  0
    3.3194    1.4408   -0.4670 H   0  0  0  0  0  0  0  0  0  0  0  0
    1.4619   -3.0932   -0.4795 H   0  0  0  0  0  0  0  0  0  0  0  0
   -0.9528   -2.1915   -0.6326 H   0  0  0  0  0  0  0  0  0  0  0  0
   -0.9282   -2.3022    1.1436 H   0  0  0  0  0  0  0  0  0  0  0  0
   -1.0386   -4.6387    1.1492 H   0  0  0  0  0  0  0  0  0  0  0  0
   -0.1184   -4.7799   -0.3529 H   0  0  0  0  0  0  0  0  0  0  0  0
   -3.3997   -4.3086    1.0542 H   0  0  0  0  0  0  0  0  0  0  0  0
   -4.1792   -4.6702   -0.4900 H   0  0  0  0  0  0  0  0  0  0  0  0
   -4.8519   -2.4751   -0.2947 H   0  0  0  0  0  0  0  0  0  0  0  0
   -3.3347   -2.2282   -1.1875 H   0  0  0  0  0  0  0  0  0  0  0  0
   -2.9292   -0.0339   -0.1688 H   0  0  0  0  0  0  0  0  0  0  0  0
   -4.4804   -0.1284    0.7029 H   0  0  0  0  0  0  0  0  0  0  0  0
   -3.2422   -0.1702    2.8776 H   0  0  0  0  0  0  0  0  0  0  0  0
   -1.6973   -0.0589    2.0244 H   0  0  0  0  0  0  0  0  0  0  0  0
   -3.5930    2.1232    2.5645 H   0  0  0  0  0  0  0  0  0  0  0  0
   -0.8419    1.1093    0.2503 H   0  0  0  0  0  0  0  0  0  0  0  0
    0.6116    2.7542   -0.8816 H   0  0  0  0  0  0  0  0  0  0  0  0
    0.2861    5.2213   -0.4982 H   0  0  0  0  0  0  0  0  0  0  0  0
   -3.4515    8.0057    2.2407 H   0  0  0  0  0  0  0  0  0  0  0  0
   -2.7299    8.6003    4.4469 H   0  0  0  0  0  0  0  0  0  0  0  0
   -1.3889    7.7038    3.7176 H   0  0  0  0  0  0  0  0  0  0  0  0
   -2.0744    5.6322    4.9356 H   0  0  0  0  0  0  0  0  0  0  0  0
   -1.8887    6.9438    6.0914 H   0  0  0  0  0  0  0  0  0  0  0  0
   -5.9220    6.4813    5.1505 H   0  0  0  0  0  0  0  0  0  0  0  0
  1  2  2  0  0  0  0
  2  3  1  0  0  0  0
  2 28  1  0  0  0  0
  3  4  1  0  0  0  0
  3 57  1  0  0  0  0
  3 58  1  0  0  0  0
  4  5  1  0  0  0  0
  4 27  1  0  0  0  0
  5  6  2  0  0  0  0
  5 59  1  0  0  0  0
  6  7  1  0  0  0  0
  6 22  1  0  0  0  0
  7  8  2  0  0  0  0
  7 20  1  0  0  0  0
  8  9  1  0  0  0  0
  8 17  1  0  0  0  0
  9 10  2  0  0  0  0
  9 15  1  0  0  0  0
 10 11  1  0  0  0  0
 10 60  1  0  0  0  0
 11 12  2  0  0  0  0
 11 61  1  0  0  0  0
 12 13  1  0  0  0  0
 12 14  1  0  0  0  0
 14 15  2  0  0  0  0
 14 62  1  0  0  0  0
 15 16  1  0  0  0  0
 17 18  2  0  0  0  0
 17 19  1  0  0  0  0
 19 20  1  0  0  0  0
 19 63  1  0  0  0  0
 20 21  2  0  0  0  0
 22 23  2  0  0  0  0
 22 27  1  0  0  0  0
 23 24  1  0  0  0  0
 23 64  1  0  0  0  0
 24 25  2  0  0  0  0
 24 65  1  0  0  0  0
 25 26  1  0  0  0  0
 25 66  1  0  0  0  0
 26 27  2  0  0  0  0
 26 67  1  0  0  0  0
 28 29  1  0  0  0  0
 28 68  1  0  0  0  0
 29 30  1  0  0  0  0
 29 69  1  0  0  0  0
 29 70  1  0  0  0  0
 30 31  1  0  0  0  0
 30 71  1  0  0  0  0
 30 72  1  0  0  0  0
 31 32  1  0  0  0  0
 32 33  1  0  0  0  0
 32 73  1  0  0  0  0
 32 74  1  0  0  0  0
 33 34  1  0  0  0  0
 33 75  1  0  0  0  0
 33 76  1  0  0  0  0
 34 35  1  0  0  0  0
 35 36  1  0  0  0  0
 35 77  1  0  0  0  0
 35 78  1  0  0  0  0
 36 37  1  0  0  0  0
 36 79  1  0  0  0  0
 36 80  1  0  0  0  0
 37 38  1  0  0  0  0
 37 81  1  0  0  0  0
 38 39  2  0  0  0  0
 38 43  1  0  0  0  0
 39 40  1  0  0  0  0
 39 82  1  0  0  0  0
 40 41  2  0  0  0  0
 40 83  1  0  0  0  0
 41 42  1  0  0  0  0
 41 84  1  0  0  0  0
 42 43  2  0  0  0  0
 42 55  1  0  0  0  0
 43 44  1  0  0  0  0
 44 45  2  0  0  0  0
 44 46  1  0  0  0  0
 46 47  1  0  0  0  0
 46 55  1  0  0  0  0
 47 48  1  0  0  0  0
 47 53  1  0  0  0  0
 47 85  1  0  0  0  0
 48 49  1  0  0  0  0
 48 86  1  0  0  0  0
 48 87  1  0  0  0  0
 49 50  1  0  0  0  0
 49 88  1  0  0  0  0
 49 89  1  0  0  0  0
 50 51  2  0  0  0  0
 50 52  1  0  0  0  0
 52 53  1  0  0  0  0
 52 90  1  0  0  0  0
 53 54  2  0  0  0  0
 55 56  2  0  0  0  0
M  END
$$$$
protac3895RUN2
  chem.cr 07102519423D
protac3895RUN2
 90 96  0  0  0  0  0  0  0  0999 V2000
    2.1625   -5.0737    0.7073 O   0  0  0  0  0  0  0  0  0  0  0  0
    2.0749   -3.8548    0.7840 C   0  0  0  0  0  0  0  0  0  0  0  0
    3.0363   -2.9234    0.0880 C   0  0  0  0  0  0  0  0  0  0  0  0
    2.6834   -2.6643   -1.3190 N   0  0  0  0  0  0  0  0  0  0  0  0
    3.2159   -3.4749   -2.3277 C   0  0  0  0  0  0  0  0  0  0  0  0
    3.3560   -2.7907   -3.4887 C   0  0  0  0  0  0  0  0  0  0  0  0
    3.7035   -3.2979   -4.7147 C   0  0  0  0  0  0  0  0  0  0  0  0
    4.2068   -4.5344   -4.9601 C   0  0  0  0  0  0  0  0  0  0  0  0
    4.5413   -5.5008   -4.0264 C   0  0  0  0  0  0  0  0  0  0  0  0
    3.7302   -6.6453   -3.8943 C   0  0  0  0  0  0  0  0  0  0  0  0
    4.0541   -7.6430   -2.9573 C   0  0  0  0  0  0  0  0  0  0  0  0
    5.2044   -7.5106   -2.1625 C   0  0  0  0  0  0  0  0  0  0  0  0
    5.6157   -8.7661   -1.0020 Cl  0  0  0  0  0  0  0  0  0  0  0  0
    6.0268   -6.3808   -2.2960 C   0  0  0  0  0  0  0  0  0  0  0  0
    5.6972   -5.3745   -3.2215 C   0  0  0  0  0  0  0  0  0  0  0  0
    6.7521   -3.9693   -3.3562 Cl  0  0  0  0  0  0  0  0  0  0  0  0
    4.4170   -4.7417   -6.2608 C   0  0  0  0  0  0  0  0  0  0  0  0
    4.8776   -5.6762   -6.9040 O   0  0  0  0  0  0  0  0  0  0  0  0
    4.0066   -3.6129   -6.9396 N   0  0  0  0  0  0  0  0  0  0  0  0
    3.5903   -2.7291   -5.9473 C   0  0  0  0  0  0  0  0  0  0  0  0
    3.1217   -1.6854   -6.3716 O   0  0  0  0  0  0  0  0  0  0  0  0
    2.9941   -1.4663   -3.1706 C   0  0  0  0  0  0  0  0  0  0  0  0
    3.1960   -0.2389   -3.8412 C   0  0  0  0  0  0  0  0  0  0  0  0
    2.7648    0.9633   -3.2392 C   0  0  0  0  0  0  0  0  0  0  0  0
    2.1998    0.9655   -1.9475 C   0  0  0  0  0  0  0  0  0  0  0  0
    2.1125   -0.2344   -1.2212 C   0  0  0  0  0  0  0  0  0  0  0  0
    2.5374   -1.4132   -1.8495 C   0  0  0  0  0  0  0  0  0  0  0  0
    1.3039   -3.2946    1.8146 N   0  0  0  0  0  0  0  0  0  0  0  0
    0.9114   -4.0350    3.0247 C   0  0  0  0  0  0  0  0  0  0  0  0
    1.3337   -3.2683    4.2898 C   0  0  0  0  0  0  0  0  0  0  0  0
    0.4981   -2.1096    4.3894 O   0  0  0  0  0  0  0  0  0  0  0  0
    1.0069   -1.0484    5.2127 C   0  0  0  0  0  0  0  0  0  0  0  0
   -0.1078    0.0042    5.3773 C   0  0  0  0  0  0  0  0  0  0  0  0
   -0.5343    0.3836    4.0650 O   0  0  0  0  0  0  0  0  0  0  0  0
   -1.6477    1.2816    3.9970 C   0  0  0  0  0  0  0  0  0  0  0  0
   -2.2781    1.0181    2.6216 C   0  0  0  0  0  0  0  0  0  0  0  0
   -3.2584    2.0463    2.2403 N   0  0  0  0  0  0  0  0  0  0  0  0
   -3.6652    2.2513    0.9275 C   0  0  0  0  0  0  0  0  0  0  0  0
   -3.4614    1.2770   -0.0809 C   0  0  0  0  0  0  0  0  0  0  0  0
   -3.8306    1.5239   -1.4253 C   0  0  0  0  0  0  0  0  0  0  0  0
   -4.4089    2.7550   -1.7915 C   0  0  0  0  0  0  0  0  0  0  0  0
   -4.6244    3.7032   -0.7840 C   0  0  0  0  0  0  0  0  0  0  0  0
   -4.2726    3.4554    0.5450 C   0  0  0  0  0  0  0  0  0  0  0  0
   -4.5898    4.5745    1.2840 C   0  0  0  0  0  0  0  0  0  0  0  0
   -4.2369    4.8397    2.4271 O   0  0  0  0  0  0  0  0  0  0  0  0
   -5.1006    5.5462    0.4076 N   0  0  0  0  0  0  0  0  0  0  0  0
   -5.7294    6.8395    0.7578 C   0  0  0  0  0  0  0  0  0  0  0  0
   -4.6911    7.9901    0.7604 C   0  0  0  0  0  0  0  0  0  0  0  0
   -4.0360    8.1485    2.1500 C   0  0  0  0  0  0  0  0  0  0  0  0
   -5.0842    8.3343    3.2196 C   0  0  0  0  0  0  0  0  0  0  0  0
   -4.9976    9.1521    4.1227 O   0  0  0  0  0  0  0  0  0  0  0  0
   -6.2868    7.6306    3.1055 N   0  0  0  0  0  0  0  0  0  0  0  0
   -6.5718    6.7741    2.0306 C   0  0  0  0  0  0  0  0  0  0  0  0
   -7.6540    6.2064    2.0789 O   0  0  0  0  0  0  0  0  0  0  0  0
   -5.1495    4.9710   -0.8667 C   0  0  0  0  0  0  0  0  0  0  0  0
   -5.3339    5.6455   -1.8750 O   0  0  0  0  0  0  0  0  0  0  0  0
    3.1030   -1.9746    0.6290 H   0  0  0  0  0  0  0  0  0  0  0  0
    4.0332   -3.3794    0.1172 H   0  0  0  0  0  0  0  0  0  0  0  0
    3.3490   -4.5310   -2.1067 H   0  0  0  0  0  0  0  0  0  0  0  0
    2.8456   -6.7566   -4.5169 H   0  0  0  0  0  0  0  0  0  0  0  0
    3.4212   -8.5210   -2.8529 H   0  0  0  0  0  0  0  0  0  0  0  0
    6.9184   -6.2845   -1.6835 H   0  0  0  0  0  0  0  0  0  0  0  0
    4.3189   -3.3410   -7.8581 H   0  0  0  0  0  0  0  0  0  0  0  0
    3.7213   -0.1716   -4.7817 H   0  0  0  0  0  0  0  0  0  0  0  0
    2.8975    1.9037   -3.7688 H   0  0  0  0  0  0  0  0  0  0  0  0
    1.8823    1.9012   -1.4924 H   0  0  0  0  0  0  0  0  0  0  0  0
    1.7438   -0.2391   -0.2017 H   0  0  0  0  0  0  0  0  0  0  0  0
    1.1238   -2.2979    1.7982 H   0  0  0  0  0  0  0  0  0  0  0  0
    1.3829   -5.0276    3.0293 H   0  0  0  0  0  0  0  0  0  0  0  0
   -0.1772   -4.1819    3.0228 H   0  0  0  0  0  0  0  0  0  0  0  0
    2.3942   -2.9929    4.2182 H   0  0  0  0  0  0  0  0  0  0  0  0
    1.2023   -3.9094    5.1704 H   0  0  0  0  0  0  0  0  0  0  0  0
    1.8853   -0.5861    4.7453 H   0  0  0  0  0  0  0  0  0  0  0  0
    1.2991   -1.4264    6.1999 H   0  0  0  0  0  0  0  0  0  0  0  0
    0.2810    0.8704    5.9268 H   0  0  0  0  0  0  0  0  0  0  0  0
   -0.9392   -0.4345    5.9453 H   0  0  0  0  0  0  0  0  0  0  0  0
   -2.3856    1.0813    4.7858 H   0  0  0  0  0  0  0  0  0  0  0  0
   -1.3063    2.3223    4.0827 H   0  0  0  0  0  0  0  0  0  0  0  0
   -1.4737    0.9877    1.8748 H   0  0  0  0  0  0  0  0  0  0  0  0
   -2.7572    0.0296    2.6381 H   0  0  0  0  0  0  0  0  0  0  0  0
   -3.4669    2.7934    2.8954 H   0  0  0  0  0  0  0  0  0  0  0  0
   -3.0121    0.3211    0.1661 H   0  0  0  0  0  0  0  0  0  0  0  0
   -3.6583    0.7585   -2.1791 H   0  0  0  0  0  0  0  0  0  0  0  0
   -4.6822    2.9666   -2.8221 H   0  0  0  0  0  0  0  0  0  0  0  0
   -6.4409    7.0580   -0.0496 H   0  0  0  0  0  0  0  0  0  0  0  0
   -5.2025    8.9291    0.5076 H   0  0  0  0  0  0  0  0  0  0  0  0
   -3.9321    7.8193   -0.0155 H   0  0  0  0  0  0  0  0  0  0  0  0
   -3.4287    7.2692    2.3928 H   0  0  0  0  0  0  0  0  0  0  0  0
   -3.3567    9.0092    2.1511 H   0  0  0  0  0  0  0  0  0  0  0  0
   -6.9640    7.7136    3.8474 H   0  0  0  0  0  0  0  0  0  0  0  0
  1  2  2  0  0  0  0
  2  3  1  0  0  0  0
  2 28  1  0  0  0  0
  3  4  1  0  0  0  0
  3 57  1  0  0  0  0
  3 58  1  0  0  0  0
  4  5  1  0  0  0  0
  4 27  1  0  0  0  0
  5  6  2  0  0  0  0
  5 59  1  0  0  0  0
  6  7  1  0  0  0  0
  6 22  1  0  0  0  0
  7  8  2  0  0  0  0
  7 20  1  0  0  0  0
  8  9  1  0  0  0  0
  8 17  1  0  0  0  0
  9 10  2  0  0  0  0
  9 15  1  0  0  0  0
 10 11  1  0  0  0  0
 10 60  1  0  0  0  0
 11 12  2  0  0  0  0
 11 61  1  0  0  0  0
 12 13  1  0  0  0  0
 12 14  1  0  0  0  0
 14 15  2  0  0  0  0
 14 62  1  0  0  0  0
 15 16  1  0  0  0  0
 17 18  2  0  0  0  0
 17 19  1  0  0  0  0
 19 20  1  0  0  0  0
 19 63  1  0  0  0  0
 20 21  2  0  0  0  0
 22 23  2  0  0  0  0
 22 27  1  0  0  0  0
 23 24  1  0  0  0  0
 23 64  1  0  0  0  0
 24 25  2  0  0  0  0
 24 65  1  0  0  0  0
 25 26  1  0  0  0  0
 25 66  1  0  0  0  0
 26 27  2  0  0  0  0
 26 67  1  0  0  0  0
 28 29  1  0  0  0  0
 28 68  1  0  0  0  0
 29 30  1  0  0  0  0
 29 69  1  0  0  0  0
 29 70  1  0  0  0  0
 30 31  1  0  0  0  0
 30 71  1  0  0  0  0
 30 72  1  0  0  0  0
 31 32  1  0  0  0  0
 32 33  1  0  0  0  0
 32 73  1  0  0  0  0
 32 74  1  0  0  0  0
 33 34  1  0  0  0  0
 33 75  1  0  0  0  0
 33 76  1  0  0  0  0
 34 35  1  0  0  0  0
 35 36  1  0  0  0  0
 35 77  1  0  0  0  0
 35 78  1  0  0  0  0
 36 37  1  0  0  0  0
 36 79  1  0  0  0  0
 36 80  1  0  0  0  0
 37 38  1  0  0  0  0
 37 81  1  0  0  0  0
 38 39  2  0  0  0  0
 38 43  1  0  0  0  0
 39 40  1  0  0  0  0
 39 82  1  0  0  0  0
 40 41  2  0  0  0  0
 40 83  1  0  0  0  0
 41 42  1  0  0  0  0
 41 84  1  0  0  0  0
 42 43  2  0  0  0  0
 42 55  1  0  0  0  0
 43 44  1  0  0  0  0
 44 45  2  0  0  0  0
 44 46  1  0  0  0  0
 46 47  1  0  0  0  0
 46 55  1  0  0  0  0
 47 48  1  0  0  0  0
 47 53  1  0  0  0  0
 47 85  1  0  0  0  0
 48 49  1  0  0  0  0
 48 86  1  0  0  0  0
 48 87  1  0  0  0  0
 49 50  1  0  0  0  0
 49 88  1  0  0  0  0
 49 89  1  0  0  0  0
 50 51  2  0  0  0  0
 50 52  1  0  0  0  0
 52 53  1  0  0  0  0
 52 90  1  0  0  0  0
 53 54  2  0  0  0  0
 55 56  2  0  0  0  0
M  END
$$$$
protac3895RUN2
  chem.cr 07102519423D
protac3895RUN2
 90 96  0  0  0  0  0  0  0  0999 V2000
   -0.6837   -2.5664   -1.4096 O   0  0  0  0  0  0  0  0  0  0  0  0
    0.2985   -2.6586   -2.1301 C   0  0  0  0  0  0  0  0  0  0  0  0
    0.9928   -3.9772   -2.3806 C   0  0  0  0  0  0  0  0  0  0  0  0
    0.0787   -5.0859   -2.7080 N   0  0  0  0  0  0  0  0  0  0  0  0
    0.1828   -6.3176   -2.0542 C   0  0  0  0  0  0  0  0  0  0  0  0
   -0.1576   -7.3343   -2.8783 C   0  0  0  0  0  0  0  0  0  0  0  0
   -0.0341   -8.6792   -2.6415 C   0  0  0  0  0  0  0  0  0  0  0  0
    0.2161   -9.2587   -1.4398 C   0  0  0  0  0  0  0  0  0  0  0  0
    0.3240   -8.6144   -0.2225 C   0  0  0  0  0  0  0  0  0  0  0  0
   -0.8339   -8.1144    0.4054 C   0  0  0  0  0  0  0  0  0  0  0  0
   -0.7394   -7.4262    1.6284 C   0  0  0  0  0  0  0  0  0  0  0  0
    0.5141   -7.2421    2.2332 C   0  0  0  0  0  0  0  0  0  0  0  0
    0.6334   -6.3839    3.7638 Cl  0  0  0  0  0  0  0  0  0  0  0  0
    1.6726   -7.7445    1.6188 C   0  0  0  0  0  0  0  0  0  0  0  0
    1.5810   -8.4261    0.3935 C   0  0  0  0  0  0  0  0  0  0  0  0
    3.0604   -9.0049   -0.3715 Cl  0  0  0  0  0  0  0  0  0  0  0  0
    0.2902  -10.5876   -1.5327 C   0  0  0  0  0  0  0  0  0  0  0  0
    0.4458  -11.4846   -0.7143 O   0  0  0  0  0  0  0  0  0  0  0  0
    0.1312  -10.9284   -2.8606 N   0  0  0  0  0  0  0  0  0  0  0  0
   -0.0837   -9.7184   -3.5180 C   0  0  0  0  0  0  0  0  0  0  0  0
   -0.1758   -9.8142   -4.7337 O   0  0  0  0  0  0  0  0  0  0  0  0
   -0.6065   -6.7138   -4.0571 C   0  0  0  0  0  0  0  0  0  0  0  0
   -1.3905   -7.1884   -5.1312 C   0  0  0  0  0  0  0  0  0  0  0  0
   -1.8069   -6.2929   -6.1388 C   0  0  0  0  0  0  0  0  0  0  0  0
   -1.5144   -4.9154   -6.0534 C   0  0  0  0  0  0  0  0  0  0  0  0
   -0.8356   -4.4172   -4.9276 C   0  0  0  0  0  0  0  0  0  0  0  0
   -0.4113   -5.3342   -3.9573 C   0  0  0  0  0  0  0  0  0  0  0  0
    1.1719   -1.5758   -2.0412 N   0  0  0  0  0  0  0  0  0  0  0  0
    1.5591   -0.7624   -3.2017 C   0  0  0  0  0  0  0  0  0  0  0  0
    1.5309    0.7377   -2.8368 C   0  0  0  0  0  0  0  0  0  0  0  0
    2.2014    0.8716   -1.5764 O   0  0  0  0  0  0  0  0  0  0  0  0
    2.3187    2.1986   -1.0539 C   0  0  0  0  0  0  0  0  0  0  0  0
    2.7410    2.0277    0.4180 C   0  0  0  0  0  0  0  0  0  0  0  0
    3.2658    3.2593    0.9377 O   0  0  0  0  0  0  0  0  0  0  0  0
    2.3463    4.3512    1.0561 C   0  0  0  0  0  0  0  0  0  0  0  0
    2.6850    5.0439    2.3829 C   0  0  0  0  0  0  0  0  0  0  0  0
    1.8091    6.2052    2.5892 N   0  0  0  0  0  0  0  0  0  0  0  0
    1.2940    6.5962    3.8185 C   0  0  0  0  0  0  0  0  0  0  0  0
    1.8653    6.2108    5.0536 C   0  0  0  0  0  0  0  0  0  0  0  0
    1.2805    6.6128    6.2827 C   0  0  0  0  0  0  0  0  0  0  0  0
    0.1174    7.4104    6.3001 C   0  0  0  0  0  0  0  0  0  0  0  0
   -0.4266    7.7949    5.0693 C   0  0  0  0  0  0  0  0  0  0  0  0
    0.1472    7.3974    3.8630 C   0  0  0  0  0  0  0  0  0  0  0  0
   -0.6384    7.8786    2.8448 C   0  0  0  0  0  0  0  0  0  0  0  0
   -0.5174    7.6574    1.6451 O   0  0  0  0  0  0  0  0  0  0  0  0
   -1.7418    8.5420    3.4021 N   0  0  0  0  0  0  0  0  0  0  0  0
   -3.0517    8.7926    2.7545 C   0  0  0  0  0  0  0  0  0  0  0  0
   -3.9846    7.5610    2.8694 C   0  0  0  0  0  0  0  0  0  0  0  0
   -3.5635    6.4623    1.8661 C   0  0  0  0  0  0  0  0  0  0  0  0
   -3.3886    6.9981    0.4618 C   0  0  0  0  0  0  0  0  0  0  0  0
   -3.4745    6.2963   -0.5350 O   0  0  0  0  0  0  0  0  0  0  0  0
   -3.1895    8.3707    0.2633 N   0  0  0  0  0  0  0  0  0  0  0  0
   -2.9366    9.2683    1.3104 C   0  0  0  0  0  0  0  0  0  0  0  0
   -2.8011   10.4440    0.9987 O   0  0  0  0  0  0  0  0  0  0  0  0
   -1.5565    8.5274    4.7892 C   0  0  0  0  0  0  0  0  0  0  0  0
   -2.4190    8.9156    5.5681 O   0  0  0  0  0  0  0  0  0  0  0  0
    1.7152   -3.8654   -3.1962 H   0  0  0  0  0  0  0  0  0  0  0  0
    1.5542   -4.2341   -1.4755 H   0  0  0  0  0  0  0  0  0  0  0  0
    0.6084   -6.3313   -1.0558 H   0  0  0  0  0  0  0  0  0  0  0  0
   -1.8050   -8.2523   -0.0643 H   0  0  0  0  0  0  0  0  0  0  0  0
   -1.6355   -7.0373    2.1060 H   0  0  0  0  0  0  0  0  0  0  0  0
    2.6423   -7.6061    2.0884 H   0  0  0  0  0  0  0  0  0  0  0  0
   -0.1568  -11.8332   -3.1985 H   0  0  0  0  0  0  0  0  0  0  0  0
   -1.7494   -8.2061   -5.1812 H   0  0  0  0  0  0  0  0  0  0  0  0
   -2.3990   -6.6641   -6.9723 H   0  0  0  0  0  0  0  0  0  0  0  0
   -1.8688   -4.2356   -6.8244 H   0  0  0  0  0  0  0  0  0  0  0  0
   -0.6872   -3.3512   -4.7952 H   0  0  0  0  0  0  0  0  0  0  0  0
    1.1734   -1.0876   -1.1527 H   0  0  0  0  0  0  0  0  0  0  0  0
    0.8795   -0.9549   -4.0448 H   0  0  0  0  0  0  0  0  0  0  0  0
    2.5787   -1.0349   -3.5005 H   0  0  0  0  0  0  0  0  0  0  0  0
    0.4863    1.0667   -2.7526 H   0  0  0  0  0  0  0  0  0  0  0  0
    2.0207    1.3337   -3.6162 H   0  0  0  0  0  0  0  0  0  0  0  0
    1.3616    2.7353   -1.1076 H   0  0  0  0  0  0  0  0  0  0  0  0
    3.0821    2.7656   -1.6026 H   0  0  0  0  0  0  0  0  0  0  0  0
    3.5131    1.2497    0.4779 H   0  0  0  0  0  0  0  0  0  0  0  0
    1.8813    1.6907    1.0117 H   0  0  0  0  0  0  0  0  0  0  0  0
    2.4646    5.0469    0.2151 H   0  0  0  0  0  0  0  0  0  0  0  0
    1.3033    4.0070    1.0797 H   0  0  0  0  0  0  0  0  0  0  0  0
    2.5433    4.3156    3.1918 H   0  0  0  0  0  0  0  0  0  0  0  0
    3.7380    5.3596    2.3759 H   0  0  0  0  0  0  0  0  0  0  0  0
    1.3525    6.6104    1.7772 H   0  0  0  0  0  0  0  0  0  0  0  0
    2.7655    5.6016    5.0691 H   0  0  0  0  0  0  0  0  0  0  0  0
    1.7324    6.3014    7.2202 H   0  0  0  0  0  0  0  0  0  0  0  0
   -0.3469    7.7162    7.2346 H   0  0  0  0  0  0  0  0  0  0  0  0
   -3.5235    9.6169    3.3084 H   0  0  0  0  0  0  0  0  0  0  0  0
   -5.0161    7.8750    2.6517 H   0  0  0  0  0  0  0  0  0  0  0  0
   -3.9804    7.1678    3.8956 H   0  0  0  0  0  0  0  0  0  0  0  0
   -2.6203    6.0008    2.1837 H   0  0  0  0  0  0  0  0  0  0  0  0
   -4.3082    5.6590    1.8514 H   0  0  0  0  0  0  0  0  0  0  0  0
   -3.0914    8.7100   -0.6809 H   0  0  0  0  0  0  0  0  0  0  0  0
  1  2  2  0  0  0  0
  2  3  1  0  0  0  0
  2 28  1  0  0  0  0
  3  4  1  0  0  0  0
  3 57  1  0  0  0  0
  3 58  1  0  0  0  0
  4  5  1  0  0  0  0
  4 27  1  0  0  0  0
  5  6  2  0  0  0  0
  5 59  1  0  0  0  0
  6  7  1  0  0  0  0
  6 22  1  0  0  0  0
  7  8  2  0  0  0  0
  7 20  1  0  0  0  0
  8  9  1  0  0  0  0
  8 17  1  0  0  0  0
  9 10  2  0  0  0  0
  9 15  1  0  0  0  0
 10 11  1  0  0  0  0
 10 60  1  0  0  0  0
 11 12  2  0  0  0  0
 11 61  1  0  0  0  0
 12 13  1  0  0  0  0
 12 14  1  0  0  0  0
 14 15  2  0  0  0  0
 14 62  1  0  0  0  0
 15 16  1  0  0  0  0
 17 18  2  0  0  0  0
 17 19  1  0  0  0  0
 19 20  1  0  0  0  0
 19 63  1  0  0  0  0
 20 21  2  0  0  0  0
 22 23  2  0  0  0  0
 22 27  1  0  0  0  0
 23 24  1  0  0  0  0
 23 64  1  0  0  0  0
 24 25  2  0  0  0  0
 24 65  1  0  0  0  0
 25 26  1  0  0  0  0
 25 66  1  0  0  0  0
 26 27  2  0  0  0  0
 26 67  1  0  0  0  0
 28 29  1  0  0  0  0
 28 68  1  0  0  0  0
 29 30  1  0  0  0  0
 29 69  1  0  0  0  0
 29 70  1  0  0  0  0
 30 31  1  0  0  0  0
 30 71  1  0  0  0  0
 30 72  1  0  0  0  0
 31 32  1  0  0  0  0
 32 33  1  0  0  0  0
 32 73  1  0  0  0  0
 32 74  1  0  0  0  0
 33 34  1  0  0  0  0
 33 75  1  0  0  0  0
 33 76  1  0  0  0  0
 34 35  1  0  0  0  0
 35 36  1  0  0  0  0
 35 77  1  0  0  0  0
 35 78  1  0  0  0  0
 36 37  1  0  0  0  0
 36 79  1  0  0  0  0
 36 80  1  0  0  0  0
 37 38  1  0  0  0  0
 37 81  1  0  0  0  0
 38 39  2  0  0  0  0
 38 43  1  0  0  0  0
 39 40  1  0  0  0  0
 39 82  1  0  0  0  0
 40 41  2  0  0  0  0
 40 83  1  0  0  0  0
 41 42  1  0  0  0  0
 41 84  1  0  0  0  0
 42 43  2  0  0  0  0
 42 55  1  0  0  0  0
 43 44  1  0  0  0  0
 44 45  2  0  0  0  0
 44 46  1  0  0  0  0
 46 47  1  0  0  0  0
 46 55  1  0  0  0  0
 47 48  1  0  0  0  0
 47 53  1  0  0  0  0
 47 85  1  0  0  0  0
 48 49  1  0  0  0  0
 48 86  1  0  0  0  0
 48 87  1  0  0  0  0
 49 50  1  0  0  0  0
 49 88  1  0  0  0  0
 49 89  1  0  0  0  0
 50 51  2  0  0  0  0
 50 52  1  0  0  0  0
 52 53  1  0  0  0  0
 52 90  1  0  0  0  0
 53 54  2  0  0  0  0
 55 56  2  0  0  0  0
M  END
$$$$
protac3895RUN2
  chem.cr 07102519423D
protac3895RUN2
 90 96  0  0  0  0  0  0  0  0999 V2000
   -5.1653   -2.0987   -0.2431 O   0  0  0  0  0  0  0  0  0  0  0  0
   -4.1867   -2.2031   -0.9685 C   0  0  0  0  0  0  0  0  0  0  0  0
   -4.2459   -2.8914   -2.3142 C   0  0  0  0  0  0  0  0  0  0  0  0
   -2.9476   -3.3641   -2.8416 N   0  0  0  0  0  0  0  0  0  0  0  0
   -2.5873   -4.7126   -2.9466 C   0  0  0  0  0  0  0  0  0  0  0  0
   -1.4022   -4.8372   -3.5898 C   0  0  0  0  0  0  0  0  0  0  0  0
   -0.6459   -5.9726   -3.7330 C   0  0  0  0  0  0  0  0  0  0  0  0
   -1.0601   -7.2455   -3.5043 C   0  0  0  0  0  0  0  0  0  0  0  0
   -2.3424   -7.6547   -3.1965 C   0  0  0  0  0  0  0  0  0  0  0  0
   -3.2880   -7.7772   -4.2316 C   0  0  0  0  0  0  0  0  0  0  0  0
   -4.6012   -8.1984   -3.9566 C   0  0  0  0  0  0  0  0  0  0  0  0
   -4.9738   -8.5003   -2.6365 C   0  0  0  0  0  0  0  0  0  0  0  0
   -6.6124   -9.0309   -2.2873 Cl  0  0  0  0  0  0  0  0  0  0  0  0
   -4.0355   -8.3904   -1.5974 C   0  0  0  0  0  0  0  0  0  0  0  0
   -2.7208   -7.9737   -1.8740 C   0  0  0  0  0  0  0  0  0  0  0  0
   -1.5645   -7.8382   -0.5505 Cl  0  0  0  0  0  0  0  0  0  0  0  0
   -0.0828   -8.1327   -3.6972 C   0  0  0  0  0  0  0  0  0  0  0  0
   -0.0307   -9.3533   -3.6461 O   0  0  0  0  0  0  0  0  0  0  0  0
    1.0556   -7.4337   -4.0477 N   0  0  0  0  0  0  0  0  0  0  0  0
    0.6628   -6.0999   -4.0809 C   0  0  0  0  0  0  0  0  0  0  0  0
    1.5745   -5.3134   -4.3073 O   0  0  0  0  0  0  0  0  0  0  0  0
   -1.0758   -3.5315   -4.0145 C   0  0  0  0  0  0  0  0  0  0  0  0
   -0.1556   -3.0606   -4.9747 C   0  0  0  0  0  0  0  0  0  0  0  0
   -0.1148   -1.6863   -5.2890 C   0  0  0  0  0  0  0  0  0  0  0  0
   -1.0356   -0.7858   -4.7190 C   0  0  0  0  0  0  0  0  0  0  0  0
   -2.0314   -1.2597   -3.8469 C   0  0  0  0  0  0  0  0  0  0  0  0
   -2.0232   -2.6265   -3.5265 C   0  0  0  0  0  0  0  0  0  0  0  0
   -3.0716   -1.3917   -0.7117 N   0  0  0  0  0  0  0  0  0  0  0  0
   -3.0952   -0.2789    0.2519 C   0  0  0  0  0  0  0  0  0  0  0  0
   -1.9937    0.7526   -0.0446 C   0  0  0  0  0  0  0  0  0  0  0  0
   -2.2716    1.9249    0.7336 O   0  0  0  0  0  0  0  0  0  0  0  0
   -1.3635    3.0124    0.5071 C   0  0  0  0  0  0  0  0  0  0  0  0
   -1.9261    4.2773    1.1882 C   0  0  0  0  0  0  0  0  0  0  0  0
   -1.3025    4.4274    2.4708 O   0  0  0  0  0  0  0  0  0  0  0  0
   -1.5998    5.6675    3.1328 C   0  0  0  0  0  0  0  0  0  0  0  0
   -0.7584    5.7360    4.4235 C   0  0  0  0  0  0  0  0  0  0  0  0
    0.6703    5.6124    4.0986 N   0  0  0  0  0  0  0  0  0  0  0  0
    1.6920    5.4855    5.0340 C   0  0  0  0  0  0  0  0  0  0  0  0
    1.5341    5.8348    6.3961 C   0  0  0  0  0  0  0  0  0  0  0  0
    2.6002    5.6827    7.3180 C   0  0  0  0  0  0  0  0  0  0  0  0
    3.8466    5.1753    6.8951 C   0  0  0  0  0  0  0  0  0  0  0  0
    3.9877    4.8355    5.5448 C   0  0  0  0  0  0  0  0  0  0  0  0
    2.9398    4.9864    4.6376 C   0  0  0  0  0  0  0  0  0  0  0  0
    3.3748    4.5635    3.4011 C   0  0  0  0  0  0  0  0  0  0  0  0
    2.8920    4.8569    2.3138 O   0  0  0  0  0  0  0  0  0  0  0  0
    4.7164    4.1636    3.5244 N   0  0  0  0  0  0  0  0  0  0  0  0
    5.4885    3.3449    2.5606 C   0  0  0  0  0  0  0  0  0  0  0  0
    6.4530    4.2299    1.7409 C   0  0  0  0  0  0  0  0  0  0  0  0
    5.6869    4.9802    0.6303 C   0  0  0  0  0  0  0  0  0  0  0  0
    4.8548    4.0436   -0.2198 C   0  0  0  0  0  0  0  0  0  0  0  0
    4.6301    4.2306   -1.4063 O   0  0  0  0  0  0  0  0  0  0  0  0
    4.3985    2.8383    0.3295 N   0  0  0  0  0  0  0  0  0  0  0  0
    4.6078    2.4774    1.6686 C   0  0  0  0  0  0  0  0  0  0  0  0
    4.1728    1.3876    2.0116 O   0  0  0  0  0  0  0  0  0  0  0  0
    5.0715    4.3255    4.8676 C   0  0  0  0  0  0  0  0  0  0  0  0
    6.1958    4.0839    5.2912 O   0  0  0  0  0  0  0  0  0  0  0  0
   -4.9291   -3.7443   -2.2284 H   0  0  0  0  0  0  0  0  0  0  0  0
   -4.6879   -2.1954   -3.0358 H   0  0  0  0  0  0  0  0  0  0  0  0
   -3.1904   -5.4505   -2.4274 H   0  0  0  0  0  0  0  0  0  0  0  0
   -2.9979   -7.5487   -5.2541 H   0  0  0  0  0  0  0  0  0  0  0  0
   -5.3224   -8.2972   -4.7628 H   0  0  0  0  0  0  0  0  0  0  0  0
   -4.3271   -8.6309   -0.5785 H   0  0  0  0  0  0  0  0  0  0  0  0
    1.8652   -7.8174   -4.5092 H   0  0  0  0  0  0  0  0  0  0  0  0
    0.4849   -3.7219   -5.5346 H   0  0  0  0  0  0  0  0  0  0  0  0
    0.6136   -1.3275   -6.0117 H   0  0  0  0  0  0  0  0  0  0  0  0
   -1.0107    0.2635   -4.9995 H   0  0  0  0  0  0  0  0  0  0  0  0
   -2.7972   -0.5910   -3.4642 H   0  0  0  0  0  0  0  0  0  0  0  0
   -2.2412   -1.5437   -1.2769 H   0  0  0  0  0  0  0  0  0  0  0  0
   -2.9704   -0.6758    1.2682 H   0  0  0  0  0  0  0  0  0  0  0  0
   -4.0754    0.2144    0.2057 H   0  0  0  0  0  0  0  0  0  0  0  0
   -2.0074    0.9980   -1.1158 H   0  0  0  0  0  0  0  0  0  0  0  0
   -1.0098    0.3334    0.2070 H   0  0  0  0  0  0  0  0  0  0  0  0
   -1.2663    3.2062   -0.5680 H   0  0  0  0  0  0  0  0  0  0  0  0
   -0.3662    2.7808    0.9038 H   0  0  0  0  0  0  0  0  0  0  0  0
   -3.0169    4.1989    1.2860 H   0  0  0  0  0  0  0  0  0  0  0  0
   -1.6987    5.1443    0.5550 H   0  0  0  0  0  0  0  0  0  0  0  0
   -1.3479    6.5204    2.4865 H   0  0  0  0  0  0  0  0  0  0  0  0
   -2.6683    5.7251    3.3815 H   0  0  0  0  0  0  0  0  0  0  0  0
   -0.9484    6.6923    4.9280 H   0  0  0  0  0  0  0  0  0  0  0  0
   -1.0626    4.9206    5.0924 H   0  0  0  0  0  0  0  0  0  0  0  0
    0.9075    5.3569    3.1437 H   0  0  0  0  0  0  0  0  0  0  0  0
    0.5874    6.2279    6.7484 H   0  0  0  0  0  0  0  0  0  0  0  0
    2.4556    5.9538    8.3617 H   0  0  0  0  0  0  0  0  0  0  0  0
    4.6727    5.0482    7.5917 H   0  0  0  0  0  0  0  0  0  0  0  0
    6.1020    2.6489    3.1491 H   0  0  0  0  0  0  0  0  0  0  0  0
    7.2211    3.5940    1.2796 H   0  0  0  0  0  0  0  0  0  0  0  0
    6.9713    4.9406    2.4000 H   0  0  0  0  0  0  0  0  0  0  0  0
    5.0307    5.7415    1.0696 H   0  0  0  0  0  0  0  0  0  0  0  0
    6.3957    5.5141   -0.0131 H   0  0  0  0  0  0  0  0  0  0  0  0
    3.8382    2.2299   -0.2475 H   0  0  0  0  0  0  0  0  0  0  0  0
  1  2  2  0  0  0  0
  2  3  1  0  0  0  0
  2 28  1  0  0  0  0
  3  4  1  0  0  0  0
  3 57  1  0  0  0  0
  3 58  1  0  0  0  0
  4  5  1  0  0  0  0
  4 27  1  0  0  0  0
  5  6  2  0  0  0  0
  5 59  1  0  0  0  0
  6  7  1  0  0  0  0
  6 22  1  0  0  0  0
  7  8  2  0  0  0  0
  7 20  1  0  0  0  0
  8  9  1  0  0  0  0
  8 17  1  0  0  0  0
  9 10  2  0  0  0  0
  9 15  1  0  0  0  0
 10 11  1  0  0  0  0
 10 60  1  0  0  0  0
 11 12  2  0  0  0  0
 11 61  1  0  0  0  0
 12 13  1  0  0  0  0
 12 14  1  0  0  0  0
 14 15  2  0  0  0  0
 14 62  1  0  0  0  0
 15 16  1  0  0  0  0
 17 18  2  0  0  0  0
 17 19  1  0  0  0  0
 19 20  1  0  0  0  0
 19 63  1  0  0  0  0
 20 21  2  0  0  0  0
 22 23  2  0  0  0  0
 22 27  1  0  0  0  0
 23 24  1  0  0  0  0
 23 64  1  0  0  0  0
 24 25  2  0  0  0  0
 24 65  1  0  0  0  0
 25 26  1  0  0  0  0
 25 66  1  0  0  0  0
 26 27  2  0  0  0  0
 26 67  1  0  0  0  0
 28 29  1  0  0  0  0
 28 68  1  0  0  0  0
 29 30  1  0  0  0  0
 29 69  1  0  0  0  0
 29 70  1  0  0  0  0
 30 31  1  0  0  0  0
 30 71  1  0  0  0  0
 30 72  1  0  0  0  0
 31 32  1  0  0  0  0
 32 33  1  0  0  0  0
 32 73  1  0  0  0  0
 32 74  1  0  0  0  0
 33 34  1  0  0  0  0
 33 75  1  0  0  0  0
 33 76  1  0  0  0  0
 34 35  1  0  0  0  0
 35 36  1  0  0  0  0
 35 77  1  0  0  0  0
 35 78  1  0  0  0  0
 36 37  1  0  0  0  0
 36 79  1  0  0  0  0
 36 80  1  0  0  0  0
 37 38  1  0  0  0  0
 37 81  1  0  0  0  0
 38 39  2  0  0  0  0
 38 43  1  0  0  0  0
 39 40  1  0  0  0  0
 39 82  1  0  0  0  0
 40 41  2  0  0  0  0
 40 83  1  0  0  0  0
 41 42  1  0  0  0  0
 41 84  1  0  0  0  0
 42 43  2  0  0  0  0
 42 55  1  0  0  0  0
 43 44  1  0  0  0  0
 44 45  2  0  0  0  0
 44 46  1  0  0  0  0
 46 47  1  0  0  0  0
 46 55  1  0  0  0  0
 47 48  1  0  0  0  0
 47 53  1  0  0  0  0
 47 85  1  0  0  0  0
 48 49  1  0  0  0  0
 48 86  1  0  0  0  0
 48 87  1  0  0  0  0
 49 50  1  0  0  0  0
 49 88  1  0  0  0  0
 49 89  1  0  0  0  0
 50 51  2  0  0  0  0
 50 52  1  0  0  0  0
 52 53  1  0  0  0  0
 52 90  1  0  0  0  0
 53 54  2  0  0  0  0
 55 56  2  0  0  0  0
M  END
$$$$
protac3895RUN2
  chem.cr 07102519423D
protac3895RUN2
 90 96  0  0  0  0  0  0  0  0999 V2000
   -4.0956   -2.2889   -0.8357 O   0  0  0  0  0  0  0  0  0  0  0  0
   -3.9066   -1.6959   -1.8882 C   0  0  0  0  0  0  0  0  0  0  0  0
   -4.5911   -2.0497   -3.1813 C   0  0  0  0  0  0  0  0  0  0  0  0
   -3.6606   -2.5010   -4.2298 N   0  0  0  0  0  0  0  0  0  0  0  0
   -2.7216   -3.5012   -3.9699 C   0  0  0  0  0  0  0  0  0  0  0  0
   -1.6189   -3.3494   -4.7399 C   0  0  0  0  0  0  0  0  0  0  0  0
   -0.4339   -4.0408   -4.6404 C   0  0  0  0  0  0  0  0  0  0  0  0
   -0.2003   -5.1242   -3.8562 C   0  0  0  0  0  0  0  0  0  0  0  0
   -1.1019   -5.7561   -3.0220 C   0  0  0  0  0  0  0  0  0  0  0  0
   -1.8983   -6.8045   -3.5176 C   0  0  0  0  0  0  0  0  0  0  0  0
   -2.8274   -7.4472   -2.6820 C   0  0  0  0  0  0  0  0  0  0  0  0
   -2.9625   -7.0467   -1.3434 C   0  0  0  0  0  0  0  0  0  0  0  0
   -4.1225   -7.8544   -0.2986 Cl  0  0  0  0  0  0  0  0  0  0  0  0
   -2.1665   -6.0071   -0.8369 C   0  0  0  0  0  0  0  0  0  0  0  0
   -1.2346   -5.3646   -1.6702 C   0  0  0  0  0  0  0  0  0  0  0  0
   -0.2754   -4.0373   -1.0139 Cl  0  0  0  0  0  0  0  0  0  0  0  0
    1.0504   -5.5743   -3.9679 C   0  0  0  0  0  0  0  0  0  0  0  0
    1.6568   -6.5163   -3.4759 O   0  0  0  0  0  0  0  0  0  0  0  0
    1.7141   -4.7389   -4.8387 N   0  0  0  0  0  0  0  0  0  0  0  0
    0.7667   -3.8007   -5.2383 C   0  0  0  0  0  0  0  0  0  0  0  0
    1.2108   -2.9263   -5.9651 O   0  0  0  0  0  0  0  0  0  0  0  0
   -1.9302   -2.2765   -5.6013 C   0  0  0  0  0  0  0  0  0  0  0  0
   -1.3576   -1.8264   -6.8117 C   0  0  0  0  0  0  0  0  0  0  0  0
   -1.9329   -0.7330   -7.4938 C   0  0  0  0  0  0  0  0  0  0  0  0
   -3.1129   -0.1235   -7.0236 C   0  0  0  0  0  0  0  0  0  0  0  0
   -3.7612   -0.6433   -5.8914 C   0  0  0  0  0  0  0  0  0  0  0  0
   -3.1563   -1.7179   -5.2257 C   0  0  0  0  0  0  0  0  0  0  0  0
   -2.9931   -0.6346   -1.9326 N   0  0  0  0  0  0  0  0  0  0  0  0
   -2.6063    0.1376   -0.7430 C   0  0  0  0  0  0  0  0  0  0  0  0
   -1.1901   -0.2007   -0.2640 C   0  0  0  0  0  0  0  0  0  0  0  0
   -0.9501    0.6595    0.8504 O   0  0  0  0  0  0  0  0  0  0  0  0
    0.0760    0.2368    1.7563 C   0  0  0  0  0  0  0  0  0  0  0  0
    0.0805    1.2368    2.9271 C   0  0  0  0  0  0  0  0  0  0  0  0
   -1.2172    1.1806    3.5505 O   0  0  0  0  0  0  0  0  0  0  0  0
   -1.5745    2.2576    4.4332 C   0  0  0  0  0  0  0  0  0  0  0  0
   -0.8229    2.1129    5.7745 C   0  0  0  0  0  0  0  0  0  0  0  0
    0.5452    2.6493    5.6856 N   0  0  0  0  0  0  0  0  0  0  0  0
    0.8679    4.0003    5.6257 C   0  0  0  0  0  0  0  0  0  0  0  0
    0.0364    5.0209    6.1516 C   0  0  0  0  0  0  0  0  0  0  0  0
    0.4122    6.3841    6.0643 C   0  0  0  0  0  0  0  0  0  0  0  0
    1.6238    6.7571    5.4453 C   0  0  0  0  0  0  0  0  0  0  0  0
    2.4358    5.7397    4.9311 C   0  0  0  0  0  0  0  0  0  0  0  0
    2.0661    4.3977    5.0180 C   0  0  0  0  0  0  0  0  0  0  0  0
    3.0309    3.6438    4.3866 C   0  0  0  0  0  0  0  0  0  0  0  0
    2.8910    2.5126    3.9408 O   0  0  0  0  0  0  0  0  0  0  0  0
    3.9974    4.5240    3.8726 N   0  0  0  0  0  0  0  0  0  0  0  0
    5.2755    4.1765    3.2101 C   0  0  0  0  0  0  0  0  0  0  0  0
    5.1890    4.4072    1.6855 C   0  0  0  0  0  0  0  0  0  0  0  0
    4.3691    3.2756    1.0289 C   0  0  0  0  0  0  0  0  0  0  0  0
    4.9084    1.9091    1.3903 C   0  0  0  0  0  0  0  0  0  0  0  0
    4.8174    0.9366    0.6560 O   0  0  0  0  0  0  0  0  0  0  0  0
    5.6105    1.7425    2.5912 N   0  0  0  0  0  0  0  0  0  0  0  0
    5.7676    2.7714    3.5341 C   0  0  0  0  0  0  0  0  0  0  0  0
    6.4207    2.5045    4.5339 O   0  0  0  0  0  0  0  0  0  0  0  0
    3.6274    5.8154    4.2539 C   0  0  0  0  0  0  0  0  0  0  0  0
    4.2182    6.8148    3.8608 O   0  0  0  0  0  0  0  0  0  0  0  0
   -5.3132   -2.8513   -2.9879 H   0  0  0  0  0  0  0  0  0  0  0  0
   -5.1506   -1.1788   -3.5362 H   0  0  0  0  0  0  0  0  0  0  0  0
   -2.9286   -4.1718   -3.1448 H   0  0  0  0  0  0  0  0  0  0  0  0
   -1.7977   -7.1154   -4.5541 H   0  0  0  0  0  0  0  0  0  0  0  0
   -3.4409   -8.2557   -3.0686 H   0  0  0  0  0  0  0  0  0  0  0  0
   -2.2721   -5.6950    0.1984 H   0  0  0  0  0  0  0  0  0  0  0  0
    2.5937   -4.9282   -5.2946 H   0  0  0  0  0  0  0  0  0  0  0  0
   -0.5267   -2.3264   -7.2852 H   0  0  0  0  0  0  0  0  0  0  0  0
   -1.4753   -0.3753   -8.4121 H   0  0  0  0  0  0  0  0  0  0  0  0
   -3.5495    0.7091   -7.5691 H   0  0  0  0  0  0  0  0  0  0  0  0
   -4.7182   -0.2439   -5.5724 H   0  0  0  0  0  0  0  0  0  0  0  0
   -2.6235   -0.3675   -2.8387 H   0  0  0  0  0  0  0  0  0  0  0  0
   -3.3113   -0.0660    0.0763 H   0  0  0  0  0  0  0  0  0  0  0  0
   -2.6660    1.2086   -0.9709 H   0  0  0  0  0  0  0  0  0  0  0  0
   -0.4549   -0.0248   -1.0602 H   0  0  0  0  0  0  0  0  0  0  0  0
   -1.1540   -1.2570    0.0299 H   0  0  0  0  0  0  0  0  0  0  0  0
    1.0570    0.2288    1.2626 H   0  0  0  0  0  0  0  0  0  0  0  0
   -0.1290   -0.7713    2.1424 H   0  0  0  0  0  0  0  0  0  0  0  0
    0.3017    2.2426    2.5457 H   0  0  0  0  0  0  0  0  0  0  0  0
    0.8657    0.9467    3.6337 H   0  0  0  0  0  0  0  0  0  0  0  0
   -1.3769    3.2340    3.9715 H   0  0  0  0  0  0  0  0  0  0  0  0
   -2.6517    2.2023    4.6329 H   0  0  0  0  0  0  0  0  0  0  0  0
   -1.3855    2.6242    6.5649 H   0  0  0  0  0  0  0  0  0  0  0  0
   -0.7888    1.0486    6.0414 H   0  0  0  0  0  0  0  0  0  0  0  0
    1.2564    2.0292    5.3097 H   0  0  0  0  0  0  0  0  0  0  0  0
   -0.9011    4.7697    6.6367 H   0  0  0  0  0  0  0  0  0  0  0  0
   -0.2404    7.1520    6.4723 H   0  0  0  0  0  0  0  0  0  0  0  0
    1.9203    7.8001    5.3575 H   0  0  0  0  0  0  0  0  0  0  0  0
    6.0308    4.8663    3.6094 H   0  0  0  0  0  0  0  0  0  0  0  0
    6.2051    4.4102    1.2639 H   0  0  0  0  0  0  0  0  0  0  0  0
    4.7460    5.3876    1.4687 H   0  0  0  0  0  0  0  0  0  0  0  0
    3.3220    3.3349    1.3521 H   0  0  0  0  0  0  0  0  0  0  0  0
    4.3700    3.3903   -0.0615 H   0  0  0  0  0  0  0  0  0  0  0  0
    5.9457    0.8219    2.8267 H   0  0  0  0  0  0  0  0  0  0  0  0
  1  2  2  0  0  0  0
  2  3  1  0  0  0  0
  2 28  1  0  0  0  0
  3  4  1  0  0  0  0
  3 57  1  0  0  0  0
  3 58  1  0  0  0  0
  4  5  1  0  0  0  0
  4 27  1  0  0  0  0
  5  6  2  0  0  0  0
  5 59  1  0  0  0  0
  6  7  1  0  0  0  0
  6 22  1  0  0  0  0
  7  8  2  0  0  0  0
  7 20  1  0  0  0  0
  8  9  1  0  0  0  0
  8 17  1  0  0  0  0
  9 10  2  0  0  0  0
  9 15  1  0  0  0  0
 10 11  1  0  0  0  0
 10 60  1  0  0  0  0
 11 12  2  0  0  0  0
 11 61  1  0  0  0  0
 12 13  1  0  0  0  0
 12 14  1  0  0  0  0
 14 15  2  0  0  0  0
 14 62  1  0  0  0  0
 15 16  1  0  0  0  0
 17 18  2  0  0  0  0
 17 19  1  0  0  0  0
 19 20  1  0  0  0  0
 19 63  1  0  0  0  0
 20 21  2  0  0  0  0
 22 23  2  0  0  0  0
 22 27  1  0  0  0  0
 23 24  1  0  0  0  0
 23 64  1  0  0  0  0
 24 25  2  0  0  0  0
 24 65  1  0  0  0  0
 25 26  1  0  0  0  0
 25 66  1  0  0  0  0
 26 27  2  0  0  0  0
 26 67  1  0  0  0  0
 28 29  1  0  0  0  0
 28 68  1  0  0  0  0
 29 30  1  0  0  0  0
 29 69  1  0  0  0  0
 29 70  1  0  0  0  0
 30 31  1  0  0  0  0
 30 71  1  0  0  0  0
 30 72  1  0  0  0  0
 31 32  1  0  0  0  0
 32 33  1  0  0  0  0
 32 73  1  0  0  0  0
 32 74  1  0  0  0  0
 33 34  1  0  0  0  0
 33 75  1  0  0  0  0
 33 76  1  0  0  0  0
 34 35  1  0  0  0  0
 35 36  1  0  0  0  0
 35 77  1  0  0  0  0
 35 78  1  0  0  0  0
 36 37  1  0  0  0  0
 36 79  1  0  0  0  0
 36 80  1  0  0  0  0
 37 38  1  0  0  0  0
 37 81  1  0  0  0  0
 38 39  2  0  0  0  0
 38 43  1  0  0  0  0
 39 40  1  0  0  0  0
 39 82  1  0  0  0  0
 40 41  2  0  0  0  0
 40 83  1  0  0  0  0
 41 42  1  0  0  0  0
 41 84  1  0  0  0  0
 42 43  2  0  0  0  0
 42 55  1  0  0  0  0
 43 44  1  0  0  0  0
 44 45  2  0  0  0  0
 44 46  1  0  0  0  0
 46 47  1  0  0  0  0
 46 55  1  0  0  0  0
 47 48  1  0  0  0  0
 47 53  1  0  0  0  0
 47 85  1  0  0  0  0
 48 49  1  0  0  0  0
 48 86  1  0  0  0  0
 48 87  1  0  0  0  0
 49 50  1  0  0  0  0
 49 88  1  0  0  0  0
 49 89  1  0  0  0  0
 50 51  2  0  0  0  0
 50 52  1  0  0  0  0
 52 53  1  0  0  0  0
 52 90  1  0  0  0  0
 53 54  2  0  0  0  0
 55 56  2  0  0  0  0
M  END
$$$$
protac3895RUN2
  chem.cr 07102519423D
protac3895RUN2
 90 96  0  0  0  0  0  0  0  0999 V2000
   -2.9078   -2.3770    0.0892 O   0  0  0  0  0  0  0  0  0  0  0  0
   -2.3585   -2.0068   -0.9400 C   0  0  0  0  0  0  0  0  0  0  0  0
   -3.0125   -2.0850   -2.3047 C   0  0  0  0  0  0  0  0  0  0  0  0
   -2.5830   -3.2374   -3.1236 N   0  0  0  0  0  0  0  0  0  0  0  0
   -2.0448   -4.3911   -2.5435 C   0  0  0  0  0  0  0  0  0  0  0  0
   -1.1587   -4.9928   -3.3709 C   0  0  0  0  0  0  0  0  0  0  0  0
   -0.3258   -6.0484   -3.0893 C   0  0  0  0  0  0  0  0  0  0  0  0
   -0.3259   -6.7894   -1.9493 C   0  0  0  0  0  0  0  0  0  0  0  0
   -1.1473   -6.6283   -0.8528 C   0  0  0  0  0  0  0  0  0  0  0  0
   -2.3209   -7.3982   -0.7376 C   0  0  0  0  0  0  0  0  0  0  0  0
   -3.1644   -7.2406    0.3754 C   0  0  0  0  0  0  0  0  0  0  0  0
   -2.8191   -6.3359    1.3909 C   0  0  0  0  0  0  0  0  0  0  0  0
   -3.8386   -6.1817    2.8125 Cl  0  0  0  0  0  0  0  0  0  0  0  0
   -1.6499   -5.5669    1.2848 C   0  0  0  0  0  0  0  0  0  0  0  0
   -0.8076   -5.7185    0.1721 C   0  0  0  0  0  0  0  0  0  0  0  0
    0.6540   -4.7346    0.0558 Cl  0  0  0  0  0  0  0  0  0  0  0  0
    0.6143   -7.7341   -1.9600 C   0  0  0  0  0  0  0  0  0  0  0  0
    0.9701   -8.5771   -1.1461 O   0  0  0  0  0  0  0  0  0  0  0  0
    1.2916   -7.6495   -3.1585 N   0  0  0  0  0  0  0  0  0  0  0  0
    0.7153   -6.5569   -3.8022 C   0  0  0  0  0  0  0  0  0  0  0  0
    1.3078   -6.2213   -4.8198 O   0  0  0  0  0  0  0  0  0  0  0  0
   -1.2446   -4.2540   -4.5713 C   0  0  0  0  0  0  0  0  0  0  0  0
   -0.8391   -4.5438   -5.8932 C   0  0  0  0  0  0  0  0  0  0  0  0
   -1.1260   -3.6278   -6.9315 C   0  0  0  0  0  0  0  0  0  0  0  0
   -1.8885   -2.4681   -6.6859 C   0  0  0  0  0  0  0  0  0  0  0  0
   -2.4144   -2.2403   -5.4008 C   0  0  0  0  0  0  0  0  0  0  0  0
   -2.0789   -3.1468   -4.3861 C   0  0  0  0  0  0  0  0  0  0  0  0
   -1.0462   -1.5282   -0.8142 N   0  0  0  0  0  0  0  0  0  0  0  0
   -0.0838   -1.3755   -1.9208 C   0  0  0  0  0  0  0  0  0  0  0  0
    0.8752   -0.1870   -1.6863 C   0  0  0  0  0  0  0  0  0  0  0  0
    0.1214    1.0330   -1.7852 O   0  0  0  0  0  0  0  0  0  0  0  0
   -0.0353    1.7714   -0.5579 C   0  0  0  0  0  0  0  0  0  0  0  0
   -0.8480    3.0331   -0.8922 C   0  0  0  0  0  0  0  0  0  0  0  0
   -1.1146    3.7329    0.3335 O   0  0  0  0  0  0  0  0  0  0  0  0
   -1.5300    5.0970    0.1675 C   0  0  0  0  0  0  0  0  0  0  0  0
   -2.0121    5.6476    1.5286 C   0  0  0  0  0  0  0  0  0  0  0  0
   -1.0008    5.4229    2.5735 N   0  0  0  0  0  0  0  0  0  0  0  0
   -0.1802    6.3791    3.1621 C   0  0  0  0  0  0  0  0  0  0  0  0
   -0.4522    7.7706    3.1612 C   0  0  0  0  0  0  0  0  0  0  0  0
    0.4425    8.6891    3.7675 C   0  0  0  0  0  0  0  0  0  0  0  0
    1.6340    8.2372    4.3732 C   0  0  0  0  0  0  0  0  0  0  0  0
    1.8882    6.8619    4.3706 C   0  0  0  0  0  0  0  0  0  0  0  0
    0.9969    5.9584    3.7964 C   0  0  0  0  0  0  0  0  0  0  0  0
    1.5194    4.6967    3.9502 C   0  0  0  0  0  0  0  0  0  0  0  0
    0.9778    3.6228    3.7184 O   0  0  0  0  0  0  0  0  0  0  0  0
    2.7663    4.8046    4.5824 N   0  0  0  0  0  0  0  0  0  0  0  0
    3.8395    3.7833    4.6038 C   0  0  0  0  0  0  0  0  0  0  0  0
    4.5666    3.7022    3.2414 C   0  0  0  0  0  0  0  0  0  0  0  0
    3.7273    2.9108    2.2075 C   0  0  0  0  0  0  0  0  0  0  0  0
    3.2345    1.5850    2.7512 C   0  0  0  0  0  0  0  0  0  0  0  0
    2.9199    0.6473    2.0345 O   0  0  0  0  0  0  0  0  0  0  0  0
    3.1835    1.3814    4.1382 N   0  0  0  0  0  0  0  0  0  0  0  0
    3.3597    2.4151    5.0718 C   0  0  0  0  0  0  0  0  0  0  0  0
    3.3175    2.0909    6.2489 O   0  0  0  0  0  0  0  0  0  0  0  0
    2.9660    6.1635    4.8657 C   0  0  0  0  0  0  0  0  0  0  0  0
    4.0727    6.6079    5.1551 O   0  0  0  0  0  0  0  0  0  0  0  0
   -4.0953   -2.1618   -2.1607 H   0  0  0  0  0  0  0  0  0  0  0  0
   -2.8211   -1.1549   -2.8500 H   0  0  0  0  0  0  0  0  0  0  0  0
   -2.3200   -4.6042   -1.5164 H   0  0  0  0  0  0  0  0  0  0  0  0
   -2.5720   -8.1176   -1.5120 H   0  0  0  0  0  0  0  0  0  0  0  0
   -4.0727   -7.8310    0.4630 H   0  0  0  0  0  0  0  0  0  0  0  0
   -1.3923   -4.8592    2.0687 H   0  0  0  0  0  0  0  0  0  0  0  0
    2.2575   -7.9157   -3.2744 H   0  0  0  0  0  0  0  0  0  0  0  0
   -0.3657   -5.4752   -6.1634 H   0  0  0  0  0  0  0  0  0  0  0  0
   -0.7826   -3.8454   -7.9393 H   0  0  0  0  0  0  0  0  0  0  0  0
   -2.1208   -1.7852   -7.5032 H   0  0  0  0  0  0  0  0  0  0  0  0
   -3.0896   -1.4089   -5.2142 H   0  0  0  0  0  0  0  0  0  0  0  0
   -0.7070   -1.3995    0.1295 H   0  0  0  0  0  0  0  0  0  0  0  0
   -0.6005   -1.2337   -2.8771 H   0  0  0  0  0  0  0  0  0  0  0  0
    0.4911   -2.3063   -2.0116 H   0  0  0  0  0  0  0  0  0  0  0  0
    1.6616   -0.2015   -2.4508 H   0  0  0  0  0  0  0  0  0  0  0  0
    1.3626   -0.2829   -0.7088 H   0  0  0  0  0  0  0  0  0  0  0  0
    0.9431    2.0697   -0.1562 H   0  0  0  0  0  0  0  0  0  0  0  0
   -0.5580    1.1764    0.2035 H   0  0  0  0  0  0  0  0  0  0  0  0
   -1.7859    2.7430   -1.3844 H   0  0  0  0  0  0  0  0  0  0  0  0
   -0.2677    3.6559   -1.5858 H   0  0  0  0  0  0  0  0  0  0  0  0
   -0.6908    5.7046   -0.1971 H   0  0  0  0  0  0  0  0  0  0  0  0
   -2.3481    5.1701   -0.5615 H   0  0  0  0  0  0  0  0  0  0  0  0
   -2.2493    6.7107    1.4194 H   0  0  0  0  0  0  0  0  0  0  0  0
   -2.9380    5.1311    1.8125 H   0  0  0  0  0  0  0  0  0  0  0  0
   -0.7018    4.4622    2.7113 H   0  0  0  0  0  0  0  0  0  0  0  0
   -1.3578    8.1572    2.7103 H   0  0  0  0  0  0  0  0  0  0  0  0
    0.2133    9.7512    3.7646 H   0  0  0  0  0  0  0  0  0  0  0  0
    2.3329    8.9272    4.8389 H   0  0  0  0  0  0  0  0  0  0  0  0
    4.5770    4.1114    5.3500 H   0  0  0  0  0  0  0  0  0  0  0  0
    5.5289    3.1895    3.3831 H   0  0  0  0  0  0  0  0  0  0  0  0
    4.7910    4.7135    2.8761 H   0  0  0  0  0  0  0  0  0  0  0  0
    2.8579    3.4973    1.8862 H   0  0  0  0  0  0  0  0  0  0  0  0
    4.3226    2.7329    1.3043 H   0  0  0  0  0  0  0  0  0  0  0  0
    2.8972    0.4776    4.4815 H   0  0  0  0  0  0  0  0  0  0  0  0
  1  2  2  0  0  0  0
  2  3  1  0  0  0  0
  2 28  1  0  0  0  0
  3  4  1  0  0  0  0
  3 57  1  0  0  0  0
  3 58  1  0  0  0  0
  4  5  1  0  0  0  0
  4 27  1  0  0  0  0
  5  6  2  0  0  0  0
  5 59  1  0  0  0  0
  6  7  1  0  0  0  0
  6 22  1  0  0  0  0
  7  8  2  0  0  0  0
  7 20  1  0  0  0  0
  8  9  1  0  0  0  0
  8 17  1  0  0  0  0
  9 10  2  0  0  0  0
  9 15  1  0  0  0  0
 10 11  1  0  0  0  0
 10 60  1  0  0  0  0
 11 12  2  0  0  0  0
 11 61  1  0  0  0  0
 12 13  1  0  0  0  0
 12 14  1  0  0  0  0
 14 15  2  0  0  0  0
 14 62  1  0  0  0  0
 15 16  1  0  0  0  0
 17 18  2  0  0  0  0
 17 19  1  0  0  0  0
 19 20  1  0  0  0  0
 19 63  1  0  0  0  0
 20 21  2  0  0  0  0
 22 23  2  0  0  0  0
 22 27  1  0  0  0  0
 23 24  1  0  0  0  0
 23 64  1  0  0  0  0
 24 25  2  0  0  0  0
 24 65  1  0  0  0  0
 25 26  1  0  0  0  0
 25 66  1  0  0  0  0
 26 27  2  0  0  0  0
 26 67  1  0  0  0  0
 28 29  1  0  0  0  0
 28 68  1  0  0  0  0
 29 30  1  0  0  0  0
 29 69  1  0  0  0  0
 29 70  1  0  0  0  0
 30 31  1  0  0  0  0
 30 71  1  0  0  0  0
 30 72  1  0  0  0  0
 31 32  1  0  0  0  0
 32 33  1  0  0  0  0
 32 73  1  0  0  0  0
 32 74  1  0  0  0  0
 33 34  1  0  0  0  0
 33 75  1  0  0  0  0
 33 76  1  0  0  0  0
 34 35  1  0  0  0  0
 35 36  1  0  0  0  0
 35 77  1  0  0  0  0
 35 78  1  0  0  0  0
 36 37  1  0  0  0  0
 36 79  1  0  0  0  0
 36 80  1  0  0  0  0
 37 38  1  0  0  0  0
 37 81  1  0  0  0  0
 38 39  2  0  0  0  0
 38 43  1  0  0  0  0
 39 40  1  0  0  0  0
 39 82  1  0  0  0  0
 40 41  2  0  0  0  0
 40 83  1  0  0  0  0
 41 42  1  0  0  0  0
 41 84  1  0  0  0  0
 42 43  2  0  0  0  0
 42 55  1  0  0  0  0
 43 44  1  0  0  0  0
 44 45  2  0  0  0  0
 44 46  1  0  0  0  0
 46 47  1  0  0  0  0
 46 55  1  0  0  0  0
 47 48  1  0  0  0  0
 47 53  1  0  0  0  0
 47 85  1  0  0  0  0
 48 49  1  0  0  0  0
 48 86  1  0  0  0  0
 48 87  1  0  0  0  0
 49 50  1  0  0  0  0
 49 88  1  0  0  0  0
 49 89  1  0  0  0  0
 50 51  2  0  0  0  0
 50 52  1  0  0  0  0
 52 53  1  0  0  0  0
 52 90  1  0  0  0  0
 53 54  2  0  0  0  0
 55 56  2  0  0  0  0
M  END
$$$$
protac3895RUN2
  chem.cr 07102519423D
protac3895RUN2
 90 96  0  0  0  0  0  0  0  0999 V2000
   -0.7787   -3.4316   -0.4669 O   0  0  0  0  0  0  0  0  0  0  0  0
   -1.1467   -2.7533   -1.4148 C   0  0  0  0  0  0  0  0  0  0  0  0
   -2.1422   -3.2353   -2.4468 C   0  0  0  0  0  0  0  0  0  0  0  0
   -1.5472   -4.1464   -3.4399 N   0  0  0  0  0  0  0  0  0  0  0  0
   -1.0284   -5.3819   -3.0775 C   0  0  0  0  0  0  0  0  0  0  0  0
   -0.1542   -5.8481   -4.0030 C   0  0  0  0  0  0  0  0  0  0  0  0
    0.6053   -6.9947   -3.9098 C   0  0  0  0  0  0  0  0  0  0  0  0
    0.5518   -7.9070   -2.9019 C   0  0  0  0  0  0  0  0  0  0  0  0
   -0.2311   -7.8485   -1.7659 C   0  0  0  0  0  0  0  0  0  0  0  0
   -1.4975   -8.4629   -1.7530 C   0  0  0  0  0  0  0  0  0  0  0  0
   -2.3160   -8.3730   -0.6120 C   0  0  0  0  0  0  0  0  0  0  0  0
   -1.8735   -7.6583    0.5138 C   0  0  0  0  0  0  0  0  0  0  0  0
   -2.9103   -7.5101    1.9268 Cl  0  0  0  0  0  0  0  0  0  0  0  0
   -0.6117   -7.0438    0.5084 C   0  0  0  0  0  0  0  0  0  0  0  0
    0.2132   -7.1455   -0.6231 C   0  0  0  0  0  0  0  0  0  0  0  0
    1.7733   -6.3248   -0.6189 Cl  0  0  0  0  0  0  0  0  0  0  0  0
    1.4111   -8.9115   -3.0750 C   0  0  0  0  0  0  0  0  0  0  0  0
    1.6980   -9.8986   -2.4126 O   0  0  0  0  0  0  0  0  0  0  0  0
    2.0747   -8.6972   -4.2641 N   0  0  0  0  0  0  0  0  0  0  0  0
    1.5945   -7.4712   -4.7180 C   0  0  0  0  0  0  0  0  0  0  0  0
    2.1900   -7.0509   -5.6945 O   0  0  0  0  0  0  0  0  0  0  0  0
   -0.1795   -4.8728   -5.0324 C   0  0  0  0  0  0  0  0  0  0  0  0
    0.3294   -4.8362   -6.3529 C   0  0  0  0  0  0  0  0  0  0  0  0
    0.1189   -3.6953   -7.1571 C   0  0  0  0  0  0  0  0  0  0  0  0
   -0.6472   -2.6087   -6.6929 C   0  0  0  0  0  0  0  0  0  0  0  0
   -1.2435   -2.6708   -5.4238 C   0  0  0  0  0  0  0  0  0  0  0  0
   -0.9974   -3.8037   -4.6377 C   0  0  0  0  0  0  0  0  0  0  0  0
   -0.3759   -1.6279   -1.7224 N   0  0  0  0  0  0  0  0  0  0  0  0
   -0.9812   -0.3039   -1.9330 C   0  0  0  0  0  0  0  0  0  0  0  0
   -1.2756    0.4020   -0.5998 C   0  0  0  0  0  0  0  0  0  0  0  0
   -2.0278    1.5798   -0.9219 O   0  0  0  0  0  0  0  0  0  0  0  0
   -2.2473    2.5218    0.1449 C   0  0  0  0  0  0  0  0  0  0  0  0
   -0.9662    3.3554    0.3786 C   0  0  0  0  0  0  0  0  0  0  0  0
   -0.6666    4.0438   -0.8463 O   0  0  0  0  0  0  0  0  0  0  0  0
    0.5462    4.8091   -0.8763 C   0  0  0  0  0  0  0  0  0  0  0  0
    0.2510    6.2666   -0.4616 C   0  0  0  0  0  0  0  0  0  0  0  0
    0.1996    6.4172    1.0038 N   0  0  0  0  0  0  0  0  0  0  0  0
    1.1080    7.1454    1.7664 C   0  0  0  0  0  0  0  0  0  0  0  0
    1.8426    8.2458    1.2601 C   0  0  0  0  0  0  0  0  0  0  0  0
    2.7894    8.9288    2.0621 C   0  0  0  0  0  0  0  0  0  0  0  0
    3.0274    8.5226    3.3898 C   0  0  0  0  0  0  0  0  0  0  0  0
    2.2789    7.4504    3.8894 C   0  0  0  0  0  0  0  0  0  0  0  0
    1.3322    6.7913    3.1051 C   0  0  0  0  0  0  0  0  0  0  0  0
    0.7722    5.7917    3.8674 C   0  0  0  0  0  0  0  0  0  0  0  0
    0.0295    4.8920    3.4918 O   0  0  0  0  0  0  0  0  0  0  0  0
    1.4000    5.7891    5.1234 N   0  0  0  0  0  0  0  0  0  0  0  0
    0.9490    5.0913    6.3484 C   0  0  0  0  0  0  0  0  0  0  0  0
    1.6281    3.7118    6.5028 C   0  0  0  0  0  0  0  0  0  0  0  0
    0.9431    2.6570    5.6042 C   0  0  0  0  0  0  0  0  0  0  0  0
   -0.5617    2.6396    5.7755 C   0  0  0  0  0  0  0  0  0  0  0  0
   -1.2472    1.6488    5.5723 O   0  0  0  0  0  0  0  0  0  0  0  0
   -1.2150    3.7778    6.2640 N   0  0  0  0  0  0  0  0  0  0  0  0
   -0.5680    5.0068    6.4625 C   0  0  0  0  0  0  0  0  0  0  0  0
   -1.2600    5.9246    6.8799 O   0  0  0  0  0  0  0  0  0  0  0  0
    2.3146    6.8478    5.1250 C   0  0  0  0  0  0  0  0  0  0  0  0
    3.1812    6.9520    5.9856 O   0  0  0  0  0  0  0  0  0  0  0  0
   -2.9395   -3.7755   -1.9250 H   0  0  0  0  0  0  0  0  0  0  0  0
   -2.6066   -2.3913   -2.9634 H   0  0  0  0  0  0  0  0  0  0  0  0
   -1.3233   -5.7610   -2.1068 H   0  0  0  0  0  0  0  0  0  0  0  0
   -1.8466   -8.9944   -2.6338 H   0  0  0  0  0  0  0  0  0  0  0  0
   -3.2932   -8.8488   -0.5974 H   0  0  0  0  0  0  0  0  0  0  0  0
   -0.2757   -6.4773    1.3718 H   0  0  0  0  0  0  0  0  0  0  0  0
    2.9982   -9.0448   -4.4681 H   0  0  0  0  0  0  0  0  0  0  0  0
    0.8378   -5.6638   -6.8137 H   0  0  0  0  0  0  0  0  0  0  0  0
    0.5378   -3.6644   -8.1596 H   0  0  0  0  0  0  0  0  0  0  0  0
   -0.8132   -1.7482   -7.3350 H   0  0  0  0  0  0  0  0  0  0  0  0
   -1.8916   -1.8735   -5.0768 H   0  0  0  0  0  0  0  0  0  0  0  0
    0.5880   -1.6615   -1.4116 H   0  0  0  0  0  0  0  0  0  0  0  0
   -1.9130   -0.3964   -2.5039 H   0  0  0  0  0  0  0  0  0  0  0  0
   -0.2950    0.3196   -2.5236 H   0  0  0  0  0  0  0  0  0  0  0  0
   -0.3308    0.6433   -0.0979 H   0  0  0  0  0  0  0  0  0  0  0  0
   -1.8590   -0.2604    0.0548 H   0  0  0  0  0  0  0  0  0  0  0  0
   -2.5349    2.0054    1.0704 H   0  0  0  0  0  0  0  0  0  0  0  0
   -3.0641    3.2047   -0.1247 H   0  0  0  0  0  0  0  0  0  0  0  0
   -0.1389    2.7013    0.6798 H   0  0  0  0  0  0  0  0  0  0  0  0
   -1.1520    4.0657    1.1934 H   0  0  0  0  0  0  0  0  0  0  0  0
    1.3260    4.3693   -0.2396 H   0  0  0  0  0  0  0  0  0  0  0  0
    0.9268    4.8198   -1.9052 H   0  0  0  0  0  0  0  0  0  0  0  0
    1.0358    6.9010   -0.8900 H   0  0  0  0  0  0  0  0  0  0  0  0
   -0.7025    6.5796   -0.9095 H   0  0  0  0  0  0  0  0  0  0  0  0
   -0.3301    5.7211    1.5188 H   0  0  0  0  0  0  0  0  0  0  0  0
    1.6777    8.5934    0.2457 H   0  0  0  0  0  0  0  0  0  0  0  0
    3.3392    9.7714    1.6490 H   0  0  0  0  0  0  0  0  0  0  0  0
    3.7609    9.0265    4.0147 H   0  0  0  0  0  0  0  0  0  0  0  0
    1.2750    5.7060    7.1990 H   0  0  0  0  0  0  0  0  0  0  0  0
    1.5491    3.3927    7.5522 H   0  0  0  0  0  0  0  0  0  0  0  0
    2.6988    3.7907    6.2698 H   0  0  0  0  0  0  0  0  0  0  0  0
    1.1775    2.8501    4.5498 H   0  0  0  0  0  0  0  0  0  0  0  0
    1.3418    1.6609    5.8295 H   0  0  0  0  0  0  0  0  0  0  0  0
   -2.2144    3.7404    6.3937 H   0  0  0  0  0  0  0  0  0  0  0  0
  1  2  2  0  0  0  0
  2  3  1  0  0  0  0
  2 28  1  0  0  0  0
  3  4  1  0  0  0  0
  3 57  1  0  0  0  0
  3 58  1  0  0  0  0
  4  5  1  0  0  0  0
  4 27  1  0  0  0  0
  5  6  2  0  0  0  0
  5 59  1  0  0  0  0
  6  7  1  0  0  0  0
  6 22  1  0  0  0  0
  7  8  2  0  0  0  0
  7 20  1  0  0  0  0
  8  9  1  0  0  0  0
  8 17  1  0  0  0  0
  9 10  2  0  0  0  0
  9 15  1  0  0  0  0
 10 11  1  0  0  0  0
 10 60  1  0  0  0  0
 11 12  2  0  0  0  0
 11 61  1  0  0  0  0
 12 13  1  0  0  0  0
 12 14  1  0  0  0  0
 14 15  2  0  0  0  0
 14 62  1  0  0  0  0
 15 16  1  0  0  0  0
 17 18  2  0  0  0  0
 17 19  1  0  0  0  0
 19 20  1  0  0  0  0
 19 63  1  0  0  0  0
 20 21  2  0  0  0  0
 22 23  2  0  0  0  0
 22 27  1  0  0  0  0
 23 24  1  0  0  0  0
 23 64  1  0  0  0  0
 24 25  2  0  0  0  0
 24 65  1  0  0  0  0
 25 26  1  0  0  0  0
 25 66  1  0  0  0  0
 26 27  2  0  0  0  0
 26 67  1  0  0  0  0
 28 29  1  0  0  0  0
 28 68  1  0  0  0  0
 29 30  1  0  0  0  0
 29 69  1  0  0  0  0
 29 70  1  0  0  0  0
 30 31  1  0  0  0  0
 30 71  1  0  0  0  0
 30 72  1  0  0  0  0
 31 32  1  0  0  0  0
 32 33  1  0  0  0  0
 32 73  1  0  0  0  0
 32 74  1  0  0  0  0
 33 34  1  0  0  0  0
 33 75  1  0  0  0  0
 33 76  1  0  0  0  0
 34 35  1  0  0  0  0
 35 36  1  0  0  0  0
 35 77  1  0  0  0  0
 35 78  1  0  0  0  0
 36 37  1  0  0  0  0
 36 79  1  0  0  0  0
 36 80  1  0  0  0  0
 37 38  1  0  0  0  0
 37 81  1  0  0  0  0
 38 39  2  0  0  0  0
 38 43  1  0  0  0  0
 39 40  1  0  0  0  0
 39 82  1  0  0  0  0
 40 41  2  0  0  0  0
 40 83  1  0  0  0  0
 41 42  1  0  0  0  0
 41 84  1  0  0  0  0
 42 43  2  0  0  0  0
 42 55  1  0  0  0  0
 43 44  1  0  0  0  0
 44 45  2  0  0  0  0
 44 46  1  0  0  0  0
 46 47  1  0  0  0  0
 46 55  1  0  0  0  0
 47 48  1  0  0  0  0
 47 53  1  0  0  0  0
 47 85  1  0  0  0  0
 48 49  1  0  0  0  0
 48 86  1  0  0  0  0
 48 87  1  0  0  0  0
 49 50  1  0  0  0  0
 49 88  1  0  0  0  0
 49 89  1  0  0  0  0
 50 51  2  0  0  0  0
 50 52  1  0  0  0  0
 52 53  1  0  0  0  0
 52 90  1  0  0  0  0
 53 54  2  0  0  0  0
 55 56  2  0  0  0  0
M  END
$$$$
protac3895RUN2
  chem.cr 07102519423D
protac3895RUN2
 90 96  0  0  0  0  0  0  0  0999 V2000
   -3.0815   -3.5508    0.0426 O   0  0  0  0  0  0  0  0  0  0  0  0
   -2.3555   -2.6593   -0.3637 C   0  0  0  0  0  0  0  0  0  0  0  0
   -2.4322   -2.1249   -1.7766 C   0  0  0  0  0  0  0  0  0  0  0  0
   -1.2843   -2.4926   -2.6161 N   0  0  0  0  0  0  0  0  0  0  0  0
   -0.7433   -3.7796   -2.6970 C   0  0  0  0  0  0  0  0  0  0  0  0
    0.1921   -3.8334   -3.6720 C   0  0  0  0  0  0  0  0  0  0  0  0
    0.8194   -4.9580   -4.1603 C   0  0  0  0  0  0  0  0  0  0  0  0
    0.7821   -6.1984   -3.6155 C   0  0  0  0  0  0  0  0  0  0  0  0
    0.1495   -6.5740   -2.4449 C   0  0  0  0  0  0  0  0  0  0  0  0
   -1.0838   -7.2574   -2.5061 C   0  0  0  0  0  0  0  0  0  0  0  0
   -1.7497   -7.6314   -1.3238 C   0  0  0  0  0  0  0  0  0  0  0  0
   -1.1798   -7.3431   -0.0748 C   0  0  0  0  0  0  0  0  0  0  0  0
   -2.0116   -7.8149    1.4020 Cl  0  0  0  0  0  0  0  0  0  0  0  0
    0.0597   -6.6882   -0.0044 C   0  0  0  0  0  0  0  0  0  0  0  0
    0.7162   -6.2865   -1.1818 C   0  0  0  0  0  0  0  0  0  0  0  0
    2.2386   -5.4052   -1.0493 Cl  0  0  0  0  0  0  0  0  0  0  0  0
    1.4793   -7.0826   -4.3373 C   0  0  0  0  0  0  0  0  0  0  0  0
    1.7338   -8.2704   -4.2055 O   0  0  0  0  0  0  0  0  0  0  0  0
    1.9789   -6.4203   -5.4387 N   0  0  0  0  0  0  0  0  0  0  0  0
    1.5498   -5.1016   -5.2960 C   0  0  0  0  0  0  0  0  0  0  0  0
    1.8444   -4.3799   -6.2359 O   0  0  0  0  0  0  0  0  0  0  0  0
    0.3085   -2.5075   -4.1473 C   0  0  0  0  0  0  0  0  0  0  0  0
    1.2966   -1.8501   -4.9150 C   0  0  0  0  0  0  0  0  0  0  0  0
    1.1565   -0.4727   -5.2083 C   0  0  0  0  0  0  0  0  0  0  0  0
    0.0841    0.2743   -4.6779 C   0  0  0  0  0  0  0  0  0  0  0  0
   -0.8249   -0.3371   -3.7998 C   0  0  0  0  0  0  0  0  0  0  0  0
   -0.6638   -1.7066   -3.5394 C   0  0  0  0  0  0  0  0  0  0  0  0
   -1.7623   -1.8522    0.6188 N   0  0  0  0  0  0  0  0  0  0  0  0
   -0.4297   -1.2331    0.4739 C   0  0  0  0  0  0  0  0  0  0  0  0
   -0.4958    0.3109    0.4673 C   0  0  0  0  0  0  0  0  0  0  0  0
   -0.9781    0.7038   -0.8278 O   0  0  0  0  0  0  0  0  0  0  0  0
   -1.8622    1.8348   -0.8772 C   0  0  0  0  0  0  0  0  0  0  0  0
   -1.1217    3.1369   -0.4950 C   0  0  0  0  0  0  0  0  0  0  0  0
   -0.2647    3.5503   -1.5777 O   0  0  0  0  0  0  0  0  0  0  0  0
    1.0865    3.0489   -1.5958 C   0  0  0  0  0  0  0  0  0  0  0  0
    2.0057    4.0172   -0.8061 C   0  0  0  0  0  0  0  0  0  0  0  0
    1.7421    3.9688    0.6392 N   0  0  0  0  0  0  0  0  0  0  0  0
    2.1360    4.9206    1.5694 C   0  0  0  0  0  0  0  0  0  0  0  0
    3.2007    5.8283    1.3406 C   0  0  0  0  0  0  0  0  0  0  0  0
    3.5773    6.7701    2.3302 C   0  0  0  0  0  0  0  0  0  0  0  0
    2.9012    6.8222    3.5687 C   0  0  0  0  0  0  0  0  0  0  0  0
    1.8456    5.9254    3.7756 C   0  0  0  0  0  0  0  0  0  0  0  0
    1.4738    5.0005    2.8010 C   0  0  0  0  0  0  0  0  0  0  0  0
    0.4269    4.2631    3.2989 C   0  0  0  0  0  0  0  0  0  0  0  0
   -0.0920    3.2685    2.8057 O   0  0  0  0  0  0  0  0  0  0  0  0
    0.1640    4.6930    4.6076 N   0  0  0  0  0  0  0  0  0  0  0  0
   -0.8947    4.2168    5.5310 C   0  0  0  0  0  0  0  0  0  0  0  0
   -0.4308    2.9906    6.3500 C   0  0  0  0  0  0  0  0  0  0  0  0
   -0.5060    1.6912    5.5180 C   0  0  0  0  0  0  0  0  0  0  0  0
   -1.8284    1.5280    4.7932 C   0  0  0  0  0  0  0  0  0  0  0  0
   -2.2638    0.4480    4.4228 O   0  0  0  0  0  0  0  0  0  0  0  0
   -2.6499    2.6462    4.5924 N   0  0  0  0  0  0  0  0  0  0  0  0
   -2.2277    3.9644    4.8325 C   0  0  0  0  0  0  0  0  0  0  0  0
   -3.0446    4.8453    4.6082 O   0  0  0  0  0  0  0  0  0  0  0  0
    1.0353    5.7549    4.8726 C   0  0  0  0  0  0  0  0  0  0  0  0
    1.1933    6.1970    6.0029 O   0  0  0  0  0  0  0  0  0  0  0  0
   -3.3412   -2.5117   -2.2516 H   0  0  0  0  0  0  0  0  0  0  0  0
   -2.5199   -1.0365   -1.7357 H   0  0  0  0  0  0  0  0  0  0  0  0
   -1.1870   -4.5566   -2.0811 H   0  0  0  0  0  0  0  0  0  0  0  0
   -1.5249   -7.4895   -3.4736 H   0  0  0  0  0  0  0  0  0  0  0  0
   -2.7096   -8.1371   -1.3772 H   0  0  0  0  0  0  0  0  0  0  0  0
    0.5057   -6.4818    0.9628 H   0  0  0  0  0  0  0  0  0  0  0  0
    2.6992   -6.7472   -6.0626 H   0  0  0  0  0  0  0  0  0  0  0  0
    2.1881   -2.3507   -5.2615 H   0  0  0  0  0  0  0  0  0  0  0  0
    1.9021    0.0234   -5.8248 H   0  0  0  0  0  0  0  0  0  0  0  0
   -0.0060    1.3360   -4.8980 H   0  0  0  0  0  0  0  0  0  0  0  0
   -1.6107    0.2453   -3.3386 H   0  0  0  0  0  0  0  0  0  0  0  0
   -2.1612   -1.9215    1.5481 H   0  0  0  0  0  0  0  0  0  0  0  0
    0.0545   -1.5811   -0.4497 H   0  0  0  0  0  0  0  0  0  0  0  0
    0.1974   -1.5621    1.3113 H   0  0  0  0  0  0  0  0  0  0  0  0
    0.5020    0.7366    0.6401 H   0  0  0  0  0  0  0  0  0  0  0  0
   -1.1466    0.6586    1.2795 H   0  0  0  0  0  0  0  0  0  0  0  0
   -2.7004    1.6837   -0.1847 H   0  0  0  0  0  0  0  0  0  0  0  0
   -2.2798    1.9437   -1.8855 H   0  0  0  0  0  0  0  0  0  0  0  0
   -0.5725    2.9862    0.4358 H   0  0  0  0  0  0  0  0  0  0  0  0
   -1.8721    3.9164   -0.3117 H   0  0  0  0  0  0  0  0  0  0  0  0
    1.1559    2.0311   -1.1923 H   0  0  0  0  0  0  0  0  0  0  0  0
    1.4401    3.0054   -2.6371 H   0  0  0  0  0  0  0  0  0  0  0  0
    3.0562    3.7562   -0.9963 H   0  0  0  0  0  0  0  0  0  0  0  0
    1.8401    5.0372   -1.1789 H   0  0  0  0  0  0  0  0  0  0  0  0
    1.0050    3.3482    0.9535 H   0  0  0  0  0  0  0  0  0  0  0  0
    3.7465    5.7991    0.4019 H   0  0  0  0  0  0  0  0  0  0  0  0
    4.4028    7.4536    2.1382 H   0  0  0  0  0  0  0  0  0  0  0  0
    3.1870    7.5331    4.3391 H   0  0  0  0  0  0  0  0  0  0  0  0
   -1.0793    5.0343    6.2456 H   0  0  0  0  0  0  0  0  0  0  0  0
   -1.0805    2.8845    7.2298 H   0  0  0  0  0  0  0  0  0  0  0  0
    0.5857    3.1550    6.7254 H   0  0  0  0  0  0  0  0  0  0  0  0
    0.3087    1.6744    4.7859 H   0  0  0  0  0  0  0  0  0  0  0  0
   -0.3359    0.8203    6.1606 H   0  0  0  0  0  0  0  0  0  0  0  0
   -3.5649    2.5057    4.1842 H   0  0  0  0  0  0  0  0  0  0  0  0
  1  2  2  0  0  0  0
  2  3  1  0  0  0  0
  2 28  1  0  0  0  0
  3  4  1  0  0  0  0
  3 57  1  0  0  0  0
  3 58  1  0  0  0  0
  4  5  1  0  0  0  0
  4 27  1  0  0  0  0
  5  6  2  0  0  0  0
  5 59  1  0  0  0  0
  6  7  1  0  0  0  0
  6 22  1  0  0  0  0
  7  8  2  0  0  0  0
  7 20  1  0  0  0  0
  8  9  1  0  0  0  0
  8 17  1  0  0  0  0
  9 10  2  0  0  0  0
  9 15  1  0  0  0  0
 10 11  1  0  0  0  0
 10 60  1  0  0  0  0
 11 12  2  0  0  0  0
 11 61  1  0  0  0  0
 12 13  1  0  0  0  0
 12 14  1  0  0  0  0
 14 15  2  0  0  0  0
 14 62  1  0  0  0  0
 15 16  1  0  0  0  0
 17 18  2  0  0  0  0
 17 19  1  0  0  0  0
 19 20  1  0  0  0  0
 19 63  1  0  0  0  0
 20 21  2  0  0  0  0
 22 23  2  0  0  0  0
 22 27  1  0  0  0  0
 23 24  1  0  0  0  0
 23 64  1  0  0  0  0
 24 25  2  0  0  0  0
 24 65  1  0  0  0  0
 25 26  1  0  0  0  0
 25 66  1  0  0  0  0
 26 27  2  0  0  0  0
 26 67  1  0  0  0  0
 28 29  1  0  0  0  0
 28 68  1  0  0  0  0
 29 30  1  0  0  0  0
 29 69  1  0  0  0  0
 29 70  1  0  0  0  0
 30 31  1  0  0  0  0
 30 71  1  0  0  0  0
 30 72  1  0  0  0  0
 31 32  1  0  0  0  0
 32 33  1  0  0  0  0
 32 73  1  0  0  0  0
 32 74  1  0  0  0  0
 33 34  1  0  0  0  0
 33 75  1  0  0  0  0
 33 76  1  0  0  0  0
 34 35  1  0  0  0  0
 35 36  1  0  0  0  0
 35 77  1  0  0  0  0
 35 78  1  0  0  0  0
 36 37  1  0  0  0  0
 36 79  1  0  0  0  0
 36 80  1  0  0  0  0
 37 38  1  0  0  0  0
 37 81  1  0  0  0  0
 38 39  2  0  0  0  0
 38 43  1  0  0  0  0
 39 40  1  0  0  0  0
 39 82  1  0  0  0  0
 40 41  2  0  0  0  0
 40 83  1  0  0  0  0
 41 42  1  0  0  0  0
 41 84  1  0  0  0  0
 42 43  2  0  0  0  0
 42 55  1  0  0  0  0
 43 44  1  0  0  0  0
 44 45  2  0  0  0  0
 44 46  1  0  0  0  0
 46 47  1  0  0  0  0
 46 55  1  0  0  0  0
 47 48  1  0  0  0  0
 47 53  1  0  0  0  0
 47 85  1  0  0  0  0
 48 49  1  0  0  0  0
 48 86  1  0  0  0  0
 48 87  1  0  0  0  0
 49 50  1  0  0  0  0
 49 88  1  0  0  0  0
 49 89  1  0  0  0  0
 50 51  2  0  0  0  0
 50 52  1  0  0  0  0
 52 53  1  0  0  0  0
 52 90  1  0  0  0  0
 53 54  2  0  0  0  0
 55 56  2  0  0  0  0
M  END
$$$$
protac3895RUN2
  chem.cr 07102519423D
protac3895RUN2
 90 96  0  0  0  0  0  0  0  0999 V2000
   -1.3543   -1.6327    1.5457 O   0  0  0  0  0  0  0  0  0  0  0  0
   -0.5034   -0.9221    2.0600 C   0  0  0  0  0  0  0  0  0  0  0  0
   -0.6846   -0.2421    3.3972 C   0  0  0  0  0  0  0  0  0  0  0  0
    0.3449   -0.6080    4.3891 N   0  0  0  0  0  0  0  0  0  0  0  0
    0.4841   -1.9562    4.7551 C   0  0  0  0  0  0  0  0  0  0  0  0
    1.7877   -2.2925    4.8783 C   0  0  0  0  0  0  0  0  0  0  0  0
    2.3133   -3.5425    5.0305 C   0  0  0  0  0  0  0  0  0  0  0  0
    1.6349   -4.6634    5.3724 C   0  0  0  0  0  0  0  0  0  0  0  0
    0.3056   -4.7463    5.7443 C   0  0  0  0  0  0  0  0  0  0  0  0
   -0.6277   -5.3719    4.8913 C   0  0  0  0  0  0  0  0  0  0  0  0
   -1.9763   -5.4851    5.2763 C   0  0  0  0  0  0  0  0  0  0  0  0
   -2.3989   -4.9856    6.5174 C   0  0  0  0  0  0  0  0  0  0  0  0
   -4.0816   -5.1373    7.0049 Cl  0  0  0  0  0  0  0  0  0  0  0  0
   -1.4731   -4.3764    7.3799 C   0  0  0  0  0  0  0  0  0  0  0  0
   -0.1247   -4.2565    6.9967 C   0  0  0  0  0  0  0  0  0  0  0  0
    1.0142   -3.5053    8.1181 Cl  0  0  0  0  0  0  0  0  0  0  0  0
    2.4217   -5.7395    5.3744 C   0  0  0  0  0  0  0  0  0  0  0  0
    2.2267   -6.9239    5.6073 O   0  0  0  0  0  0  0  0  0  0  0  0
    3.7016   -5.3338    5.0450 N   0  0  0  0  0  0  0  0  0  0  0  0
    3.5868   -3.9667    4.8060 C   0  0  0  0  0  0  0  0  0  0  0  0
    4.5895   -3.4418    4.3442 O   0  0  0  0  0  0  0  0  0  0  0  0
    2.4928   -1.0884    4.7279 C   0  0  0  0  0  0  0  0  0  0  0  0
    3.8128   -0.7346    5.0803 C   0  0  0  0  0  0  0  0  0  0  0  0
    4.2310    0.6048    4.9282 C   0  0  0  0  0  0  0  0  0  0  0  0
    3.3314    1.6017    4.4937 C   0  0  0  0  0  0  0  0  0  0  0  0
    1.9834    1.2738    4.2557 C   0  0  0  0  0  0  0  0  0  0  0  0
    1.6033   -0.0667    4.3939 C   0  0  0  0  0  0  0  0  0  0  0  0
    0.6832   -0.6539    1.3569 N   0  0  0  0  0  0  0  0  0  0  0  0
    0.9333   -1.1842    0.0064 C   0  0  0  0  0  0  0  0  0  0  0  0
    2.1817   -0.5692   -0.6473 C   0  0  0  0  0  0  0  0  0  0  0  0
    2.3114   -1.1636   -1.9437 O   0  0  0  0  0  0  0  0  0  0  0  0
    3.5081   -0.8133   -2.6553 C   0  0  0  0  0  0  0  0  0  0  0  0
    3.4433   -1.4310   -4.0752 C   0  0  0  0  0  0  0  0  0  0  0  0
    3.0497   -0.4146   -5.0121 O   0  0  0  0  0  0  0  0  0  0  0  0
    1.6818    0.0092   -4.9650 C   0  0  0  0  0  0  0  0  0  0  0  0
    1.6622    1.4654   -5.4651 C   0  0  0  0  0  0  0  0  0  0  0  0
    0.3699    2.0930   -5.1529 N   0  0  0  0  0  0  0  0  0  0  0  0
   -0.0146    2.5817   -3.9075 C   0  0  0  0  0  0  0  0  0  0  0  0
    0.7979    2.4971   -2.7491 C   0  0  0  0  0  0  0  0  0  0  0  0
    0.3557    3.0160   -1.5066 C   0  0  0  0  0  0  0  0  0  0  0  0
   -0.9077    3.6324   -1.3958 C   0  0  0  0  0  0  0  0  0  0  0  0
   -1.7022    3.6989   -2.5446 C   0  0  0  0  0  0  0  0  0  0  0  0
   -1.2659    3.1881   -3.7652 C   0  0  0  0  0  0  0  0  0  0  0  0
   -2.2563    3.3937   -4.7010 C   0  0  0  0  0  0  0  0  0  0  0  0
   -2.4152    2.7646   -5.7404 O   0  0  0  0  0  0  0  0  0  0  0  0
   -3.3345    4.0221   -4.0541 N   0  0  0  0  0  0  0  0  0  0  0  0
   -4.4413    4.7554   -4.7057 C   0  0  0  0  0  0  0  0  0  0  0  0
   -5.7606    3.9544   -4.6105 C   0  0  0  0  0  0  0  0  0  0  0  0
   -5.7797    2.8426   -5.6812 C   0  0  0  0  0  0  0  0  0  0  0  0
   -5.5667    3.4108   -7.0650 C   0  0  0  0  0  0  0  0  0  0  0  0
   -6.1470    3.0107   -8.0609 O   0  0  0  0  0  0  0  0  0  0  0  0
   -4.7292    4.5238   -7.2175 N   0  0  0  0  0  0  0  0  0  0  0  0
   -4.1176    5.1775   -6.1372 C   0  0  0  0  0  0  0  0  0  0  0  0
   -3.4429    6.1638   -6.4048 O   0  0  0  0  0  0  0  0  0  0  0  0
   -2.9603    4.2141   -2.7215 C   0  0  0  0  0  0  0  0  0  0  0  0
   -3.6760    4.7839   -1.9048 O   0  0  0  0  0  0  0  0  0  0  0  0
   -0.6800    0.8425    3.2533 H   0  0  0  0  0  0  0  0  0  0  0  0
   -1.6690   -0.5119    3.7987 H   0  0  0  0  0  0  0  0  0  0  0  0
   -0.4006   -2.5852    4.7390 H   0  0  0  0  0  0  0  0  0  0  0  0
   -0.3007   -5.7737    3.9340 H   0  0  0  0  0  0  0  0  0  0  0  0
   -2.6907   -5.9687    4.6156 H   0  0  0  0  0  0  0  0  0  0  0  0
   -1.7991   -4.0033    8.3468 H   0  0  0  0  0  0  0  0  0  0  0  0
    4.3771   -5.9277    4.5914 H   0  0  0  0  0  0  0  0  0  0  0  0
    4.4967   -1.4409    5.5302 H   0  0  0  0  0  0  0  0  0  0  0  0
    5.2509    0.8750    5.1900 H   0  0  0  0  0  0  0  0  0  0  0  0
    3.6643    2.6321    4.4111 H   0  0  0  0  0  0  0  0  0  0  0  0
    1.2547    2.0443    4.0238 H   0  0  0  0  0  0  0  0  0  0  0  0
    1.4434   -0.2182    1.8687 H   0  0  0  0  0  0  0  0  0  0  0  0
    0.0560   -0.9853   -0.6258 H   0  0  0  0  0  0  0  0  0  0  0  0
    1.0544   -2.2747    0.0675 H   0  0  0  0  0  0  0  0  0  0  0  0
    3.0650   -0.7820   -0.0303 H   0  0  0  0  0  0  0  0  0  0  0  0
    2.0552    0.5160   -0.7304 H   0  0  0  0  0  0  0  0  0  0  0  0
    4.3914   -1.2092   -2.1356 H   0  0  0  0  0  0  0  0  0  0  0  0
    3.6152    0.2771   -2.7339 H   0  0  0  0  0  0  0  0  0  0  0  0
    2.7565   -2.2895   -4.0988 H   0  0  0  0  0  0  0  0  0  0  0  0
    4.4431   -1.7973   -4.3419 H   0  0  0  0  0  0  0  0  0  0  0  0
    1.0518   -0.6267   -5.6009 H   0  0  0  0  0  0  0  0  0  0  0  0
    1.2831   -0.0299   -3.9434 H   0  0  0  0  0  0  0  0  0  0  0  0
    2.4799    2.0329   -4.9986 H   0  0  0  0  0  0  0  0  0  0  0  0
    1.8359    1.4765   -6.5502 H   0  0  0  0  0  0  0  0  0  0  0  0
   -0.3276    2.1573   -5.8907 H   0  0  0  0  0  0  0  0  0  0  0  0
    1.7759    2.0291   -2.7999 H   0  0  0  0  0  0  0  0  0  0  0  0
    0.9988    2.9418   -0.6324 H   0  0  0  0  0  0  0  0  0  0  0  0
   -1.2669    4.0381   -0.4539 H   0  0  0  0  0  0  0  0  0  0  0  0
   -4.5737    5.6857   -4.1384 H   0  0  0  0  0  0  0  0  0  0  0  0
   -6.6053    4.6371   -4.7799 H   0  0  0  0  0  0  0  0  0  0  0  0
   -5.8785    3.5343   -3.6022 H   0  0  0  0  0  0  0  0  0  0  0  0
   -4.9914    2.1094   -5.4770 H   0  0  0  0  0  0  0  0  0  0  0  0
   -6.7310    2.3019   -5.6510 H   0  0  0  0  0  0  0  0  0  0  0  0
   -4.5395    4.8607   -8.1482 H   0  0  0  0  0  0  0  0  0  0  0  0
  1  2  2  0  0  0  0
  2  3  1  0  0  0  0
  2 28  1  0  0  0  0
  3  4  1  0  0  0  0
  3 57  1  0  0  0  0
  3 58  1  0  0  0  0
  4  5  1  0  0  0  0
  4 27  1  0  0  0  0
  5  6  2  0  0  0  0
  5 59  1  0  0  0  0
  6  7  1  0  0  0  0
  6 22  1  0  0  0  0
  7  8  2  0  0  0  0
  7 20  1  0  0  0  0
  8  9  1  0  0  0  0
  8 17  1  0  0  0  0
  9 10  2  0  0  0  0
  9 15  1  0  0  0  0
 10 11  1  0  0  0  0
 10 60  1  0  0  0  0
 11 12  2  0  0  0  0
 11 61  1  0  0  0  0
 12 13  1  0  0  0  0
 12 14  1  0  0  0  0
 14 15  2  0  0  0  0
 14 62  1  0  0  0  0
 15 16  1  0  0  0  0
 17 18  2  0  0  0  0
 17 19  1  0  0  0  0
 19 20  1  0  0  0  0
 19 63  1  0  0  0  0
 20 21  2  0  0  0  0
 22 23  2  0  0  0  0
 22 27  1  0  0  0  0
 23 24  1  0  0  0  0
 23 64  1  0  0  0  0
 24 25  2  0  0  0  0
 24 65  1  0  0  0  0
 25 26  1  0  0  0  0
 25 66  1  0  0  0  0
 26 27  2  0  0  0  0
 26 67  1  0  0  0  0
 28 29  1  0  0  0  0
 28 68  1  0  0  0  0
 29 30  1  0  0  0  0
 29 69  1  0  0  0  0
 29 70  1  0  0  0  0
 30 31  1  0  0  0  0
 30 71  1  0  0  0  0
 30 72  1  0  0  0  0
 31 32  1  0  0  0  0
 32 33  1  0  0  0  0
 32 73  1  0  0  0  0
 32 74  1  0  0  0  0
 33 34  1  0  0  0  0
 33 75  1  0  0  0  0
 33 76  1  0  0  0  0
 34 35  1  0  0  0  0
 35 36  1  0  0  0  0
 35 77  1  0  0  0  0
 35 78  1  0  0  0  0
 36 37  1  0  0  0  0
 36 79  1  0  0  0  0
 36 80  1  0  0  0  0
 37 38  1  0  0  0  0
 37 81  1  0  0  0  0
 38 39  2  0  0  0  0
 38 43  1  0  0  0  0
 39 40  1  0  0  0  0
 39 82  1  0  0  0  0
 40 41  2  0  0  0  0
 40 83  1  0  0  0  0
 41 42  1  0  0  0  0
 41 84  1  0  0  0  0
 42 43  2  0  0  0  0
 42 55  1  0  0  0  0
 43 44  1  0  0  0  0
 44 45  2  0  0  0  0
 44 46  1  0  0  0  0
 46 47  1  0  0  0  0
 46 55  1  0  0  0  0
 47 48  1  0  0  0  0
 47 53  1  0  0  0  0
 47 85  1  0  0  0  0
 48 49  1  0  0  0  0
 48 86  1  0  0  0  0
 48 87  1  0  0  0  0
 49 50  1  0  0  0  0
 49 88  1  0  0  0  0
 49 89  1  0  0  0  0
 50 51  2  0  0  0  0
 50 52  1  0  0  0  0
 52 53  1  0  0  0  0
 52 90  1  0  0  0  0
 53 54  2  0  0  0  0
 55 56  2  0  0  0  0
M  END
$$$$
protac3895RUN2
  chem.cr 07102519423D
protac3895RUN2
 90 96  0  0  0  0  0  0  0  0999 V2000
   -1.7769   -0.0422    1.1915 O   0  0  0  0  0  0  0  0  0  0  0  0
   -0.6333   -0.2634    0.8204 C   0  0  0  0  0  0  0  0  0  0  0  0
    0.2230    0.7400    0.0639 C   0  0  0  0  0  0  0  0  0  0  0  0
    1.1560    1.5083    0.9069 N   0  0  0  0  0  0  0  0  0  0  0  0
    0.8203    1.7288    2.2446 C   0  0  0  0  0  0  0  0  0  0  0  0
    1.8981    1.5875    3.0489 C   0  0  0  0  0  0  0  0  0  0  0  0
    1.9118    1.5034    4.4172 C   0  0  0  0  0  0  0  0  0  0  0  0
    0.8610    1.7241    5.2452 C   0  0  0  0  0  0  0  0  0  0  0  0
   -0.4121    2.1076    4.8652 C   0  0  0  0  0  0  0  0  0  0  0  0
   -1.4217    1.1328    4.7366 C   0  0  0  0  0  0  0  0  0  0  0  0
   -2.6916    1.4840    4.2449 C   0  0  0  0  0  0  0  0  0  0  0  0
   -2.9591    2.8135    3.8854 C   0  0  0  0  0  0  0  0  0  0  0  0
   -4.5371    3.2484    3.2410 Cl  0  0  0  0  0  0  0  0  0  0  0  0
   -1.9659    3.7956    4.0278 C   0  0  0  0  0  0  0  0  0  0  0  0
   -0.6959    3.4478    4.5207 C   0  0  0  0  0  0  0  0  0  0  0  0
    0.5437    4.6956    4.6544 Cl  0  0  0  0  0  0  0  0  0  0  0  0
    1.1745    1.5017    6.5218 C   0  0  0  0  0  0  0  0  0  0  0  0
    0.5378    1.5424    7.5653 O   0  0  0  0  0  0  0  0  0  0  0  0
    2.5078    1.1399    6.5743 N   0  0  0  0  0  0  0  0  0  0  0  0
    2.9168    1.1043    5.2423 C   0  0  0  0  0  0  0  0  0  0  0  0
    4.0307    0.6331    5.0687 O   0  0  0  0  0  0  0  0  0  0  0  0
    2.9876    1.4571    2.1697 C   0  0  0  0  0  0  0  0  0  0  0  0
    4.3765    1.6314    2.3566 C   0  0  0  0  0  0  0  0  0  0  0  0
    5.2434    1.5324    1.2465 C   0  0  0  0  0  0  0  0  0  0  0  0
    4.7360    1.3357   -0.0550 C   0  0  0  0  0  0  0  0  0  0  0  0
    3.3464    1.2786   -0.2633 C   0  0  0  0  0  0  0  0  0  0  0  0
    2.5129    1.3552    0.8592 C   0  0  0  0  0  0  0  0  0  0  0  0
   -0.0896   -1.5054    1.1735 N   0  0  0  0  0  0  0  0  0  0  0  0
    1.3511   -1.8037    1.1960 C   0  0  0  0  0  0  0  0  0  0  0  0
    1.6436   -3.2578    1.6073 C   0  0  0  0  0  0  0  0  0  0  0  0
    0.9472   -4.1014    0.6862 O   0  0  0  0  0  0  0  0  0  0  0  0
    1.3627   -5.4722    0.6535 C   0  0  0  0  0  0  0  0  0  0  0  0
    0.5310   -6.2252   -0.4137 C   0  0  0  0  0  0  0  0  0  0  0  0
    0.7606   -5.6297   -1.7054 O   0  0  0  0  0  0  0  0  0  0  0  0
   -0.1552   -4.5876   -2.0814 C   0  0  0  0  0  0  0  0  0  0  0  0
    0.5809   -3.6596   -3.0577 C   0  0  0  0  0  0  0  0  0  0  0  0
   -0.2151   -2.4398   -3.2696 N   0  0  0  0  0  0  0  0  0  0  0  0
   -0.4152   -1.7566   -4.4661 C   0  0  0  0  0  0  0  0  0  0  0  0
    0.1196   -2.1671   -5.7119 C   0  0  0  0  0  0  0  0  0  0  0  0
   -0.1478   -1.4341   -6.8952 C   0  0  0  0  0  0  0  0  0  0  0  0
   -0.9496   -0.2742   -6.8582 C   0  0  0  0  0  0  0  0  0  0  0  0
   -1.4658    0.1246   -5.6209 C   0  0  0  0  0  0  0  0  0  0  0  0
   -1.2031   -0.5968   -4.4604 C   0  0  0  0  0  0  0  0  0  0  0  0
   -1.8317    0.0311   -3.4117 C   0  0  0  0  0  0  0  0  0  0  0  0
   -1.4786   -0.0385   -2.2442 O   0  0  0  0  0  0  0  0  0  0  0  0
   -2.4802    1.1765   -3.9083 N   0  0  0  0  0  0  0  0  0  0  0  0
   -3.5474    1.9518   -3.2235 C   0  0  0  0  0  0  0  0  0  0  0  0
   -3.2037    3.4577   -3.1635 C   0  0  0  0  0  0  0  0  0  0  0  0
   -2.0905    3.6985   -2.1213 C   0  0  0  0  0  0  0  0  0  0  0  0
   -2.4529    3.1304   -0.7667 C   0  0  0  0  0  0  0  0  0  0  0  0
   -1.9409    3.5141    0.2749 O   0  0  0  0  0  0  0  0  0  0  0  0
   -3.2420    1.9750   -0.7079 N   0  0  0  0  0  0  0  0  0  0  0  0
   -3.8918    1.4341   -1.8296 C   0  0  0  0  0  0  0  0  0  0  0  0
   -4.7255    0.5637   -1.6210 O   0  0  0  0  0  0  0  0  0  0  0  0
   -2.2539    1.2015   -5.2905 C   0  0  0  0  0  0  0  0  0  0  0  0
   -2.8528    1.9608   -6.0445 O   0  0  0  0  0  0  0  0  0  0  0  0
    0.7746    0.2224   -0.7264 H   0  0  0  0  0  0  0  0  0  0  0  0
   -0.4416    1.4516   -0.4331 H   0  0  0  0  0  0  0  0  0  0  0  0
   -0.2364    1.8283    2.4734 H   0  0  0  0  0  0  0  0  0  0  0  0
   -1.2091    0.0982    4.9868 H   0  0  0  0  0  0  0  0  0  0  0  0
   -3.4594    0.7242    4.1237 H   0  0  0  0  0  0  0  0  0  0  0  0
   -2.1748    4.8206    3.7380 H   0  0  0  0  0  0  0  0  0  0  0  0
    2.9108    0.5655    7.2982 H   0  0  0  0  0  0  0  0  0  0  0  0
    4.7984    1.9072    3.3122 H   0  0  0  0  0  0  0  0  0  0  0  0
    6.3139    1.6526    1.3937 H   0  0  0  0  0  0  0  0  0  0  0  0
    5.4160    1.2935   -0.9020 H   0  0  0  0  0  0  0  0  0  0  0  0
    2.9340    1.2287   -1.2654 H   0  0  0  0  0  0  0  0  0  0  0  0
   -0.7352   -2.2065    1.5156 H   0  0  0  0  0  0  0  0  0  0  0  0
    1.8481   -1.1238    1.9005 H   0  0  0  0  0  0  0  0  0  0  0  0
    1.7749   -1.6274    0.1986 H   0  0  0  0  0  0  0  0  0  0  0  0
    1.3050   -3.4362    2.6353 H   0  0  0  0  0  0  0  0  0  0  0  0
    2.7270   -3.4298    1.5593 H   0  0  0  0  0  0  0  0  0  0  0  0
    1.2095   -5.9444    1.6321 H   0  0  0  0  0  0  0  0  0  0  0  0
    2.4261   -5.5487    0.3947 H   0  0  0  0  0  0  0  0  0  0  0  0
   -0.5345   -6.2109   -0.1478 H   0  0  0  0  0  0  0  0  0  0  0  0
    0.8583   -7.2727   -0.4261 H   0  0  0  0  0  0  0  0  0  0  0  0
   -1.0489   -5.0089   -2.5606 H   0  0  0  0  0  0  0  0  0  0  0  0
   -0.4857   -4.0062   -1.2116 H   0  0  0  0  0  0  0  0  0  0  0  0
    1.5520   -3.3905   -2.6212 H   0  0  0  0  0  0  0  0  0  0  0  0
    0.7599   -4.2041   -3.9907 H   0  0  0  0  0  0  0  0  0  0  0  0
   -0.6601   -2.0277   -2.4544 H   0  0  0  0  0  0  0  0  0  0  0  0
    0.7368   -3.0559   -5.7802 H   0  0  0  0  0  0  0  0  0  0  0  0
    0.2682   -1.7700   -7.8417 H   0  0  0  0  0  0  0  0  0  0  0  0
   -1.1630    0.2950   -7.7591 H   0  0  0  0  0  0  0  0  0  0  0  0
   -4.4557    1.8386   -3.8316 H   0  0  0  0  0  0  0  0  0  0  0  0
   -4.1034    4.0155   -2.8701 H   0  0  0  0  0  0  0  0  0  0  0  0
   -2.9001    3.8315   -4.1505 H   0  0  0  0  0  0  0  0  0  0  0  0
   -1.1545    3.2357   -2.4583 H   0  0  0  0  0  0  0  0  0  0  0  0
   -1.8923    4.7731   -2.0224 H   0  0  0  0  0  0  0  0  0  0  0  0
   -3.3120    1.4821    0.1728 H   0  0  0  0  0  0  0  0  0  0  0  0
  1  2  2  0  0  0  0
  2  3  1  0  0  0  0
  2 28  1  0  0  0  0
  3  4  1  0  0  0  0
  3 57  1  0  0  0  0
  3 58  1  0  0  0  0
  4  5  1  0  0  0  0
  4 27  1  0  0  0  0
  5  6  2  0  0  0  0
  5 59  1  0  0  0  0
  6  7  1  0  0  0  0
  6 22  1  0  0  0  0
  7  8  2  0  0  0  0
  7 20  1  0  0  0  0
  8  9  1  0  0  0  0
  8 17  1  0  0  0  0
  9 10  2  0  0  0  0
  9 15  1  0  0  0  0
 10 11  1  0  0  0  0
 10 60  1  0  0  0  0
 11 12  2  0  0  0  0
 11 61  1  0  0  0  0
 12 13  1  0  0  0  0
 12 14  1  0  0  0  0
 14 15  2  0  0  0  0
 14 62  1  0  0  0  0
 15 16  1  0  0  0  0
 17 18  2  0  0  0  0
 17 19  1  0  0  0  0
 19 20  1  0  0  0  0
 19 63  1  0  0  0  0
 20 21  2  0  0  0  0
 22 23  2  0  0  0  0
 22 27  1  0  0  0  0
 23 24  1  0  0  0  0
 23 64  1  0  0  0  0
 24 25  2  0  0  0  0
 24 65  1  0  0  0  0
 25 26  1  0  0  0  0
 25 66  1  0  0  0  0
 26 27  2  0  0  0  0
 26 67  1  0  0  0  0
 28 29  1  0  0  0  0
 28 68  1  0  0  0  0
 29 30  1  0  0  0  0
 29 69  1  0  0  0  0
 29 70  1  0  0  0  0
 30 31  1  0  0  0  0
 30 71  1  0  0  0  0
 30 72  1  0  0  0  0
 31 32  1  0  0  0  0
 32 33  1  0  0  0  0
 32 73  1  0  0  0  0
 32 74  1  0  0  0  0
 33 34  1  0  0  0  0
 33 75  1  0  0  0  0
 33 76  1  0  0  0  0
 34 35  1  0  0  0  0
 35 36  1  0  0  0  0
 35 77  1  0  0  0  0
 35 78  1  0  0  0  0
 36 37  1  0  0  0  0
 36 79  1  0  0  0  0
 36 80  1  0  0  0  0
 37 38  1  0  0  0  0
 37 81  1  0  0  0  0
 38 39  2  0  0  0  0
 38 43  1  0  0  0  0
 39 40  1  0  0  0  0
 39 82  1  0  0  0  0
 40 41  2  0  0  0  0
 40 83  1  0  0  0  0
 41 42  1  0  0  0  0
 41 84  1  0  0  0  0
 42 43  2  0  0  0  0
 42 55  1  0  0  0  0
 43 44  1  0  0  0  0
 44 45  2  0  0  0  0
 44 46  1  0  0  0  0
 46 47  1  0  0  0  0
 46 55  1  0  0  0  0
 47 48  1  0  0  0  0
 47 53  1  0  0  0  0
 47 85  1  0  0  0  0
 48 49  1  0  0  0  0
 48 86  1  0  0  0  0
 48 87  1  0  0  0  0
 49 50  1  0  0  0  0
 49 88  1  0  0  0  0
 49 89  1  0  0  0  0
 50 51  2  0  0  0  0
 50 52  1  0  0  0  0
 52 53  1  0  0  0  0
 52 90  1  0  0  0  0
 53 54  2  0  0  0  0
 55 56  2  0  0  0  0
M  END
$$$$
protac3895RUN2
  chem.cr 07102519423D
protac3895RUN2
 90 96  0  0  0  0  0  0  0  0999 V2000
   -0.3016   -1.1852    2.6053 O   0  0  0  0  0  0  0  0  0  0  0  0
    0.4698   -0.8935    1.7060 C   0  0  0  0  0  0  0  0  0  0  0  0
    0.9370    0.5185    1.4429 C   0  0  0  0  0  0  0  0  0  0  0  0
    2.1463    0.8710    2.2044 N   0  0  0  0  0  0  0  0  0  0  0  0
    2.0436    1.4868    3.4545 C   0  0  0  0  0  0  0  0  0  0  0  0
    3.0933    2.3125    3.7021 C   0  0  0  0  0  0  0  0  0  0  0  0
    3.2452    3.1506    4.7861 C   0  0  0  0  0  0  0  0  0  0  0  0
    2.3640    3.3071    5.8178 C   0  0  0  0  0  0  0  0  0  0  0  0
    1.1146    2.7339    5.9573 C   0  0  0  0  0  0  0  0  0  0  0  0
    0.9116    1.7080    6.9011 C   0  0  0  0  0  0  0  0  0  0  0  0
   -0.3739    1.1657    7.0930 C   0  0  0  0  0  0  0  0  0  0  0  0
   -1.4580    1.6532    6.3437 C   0  0  0  0  0  0  0  0  0  0  0  0
   -3.0694    0.9906    6.5858 Cl  0  0  0  0  0  0  0  0  0  0  0  0
   -1.2661    2.6842    5.4094 C   0  0  0  0  0  0  0  0  0  0  0  0
    0.0143    3.2328    5.2202 C   0  0  0  0  0  0  0  0  0  0  0  0
    0.2198    4.5437    4.0581 Cl  0  0  0  0  0  0  0  0  0  0  0  0
    2.7807    4.1917    6.7198 C   0  0  0  0  0  0  0  0  0  0  0  0
    2.2944    4.6421    7.7522 O   0  0  0  0  0  0  0  0  0  0  0  0
    4.0128    4.6534    6.3194 N   0  0  0  0  0  0  0  0  0  0  0  0
    4.2335    4.0471    5.0863 C   0  0  0  0  0  0  0  0  0  0  0  0
    5.2348    4.4609    4.5307 O   0  0  0  0  0  0  0  0  0  0  0  0
    3.9423    2.1326    2.5783 C   0  0  0  0  0  0  0  0  0  0  0  0
    5.2685    2.5333    2.2763 C   0  0  0  0  0  0  0  0  0  0  0  0
    5.8432    2.2003    1.0303 C   0  0  0  0  0  0  0  0  0  0  0  0
    5.1457    1.4088    0.0985 C   0  0  0  0  0  0  0  0  0  0  0  0
    3.8749    0.9114    0.4220 C   0  0  0  0  0  0  0  0  0  0  0  0
    3.3166    1.2854    1.6500 C   0  0  0  0  0  0  0  0  0  0  0  0
    0.6017   -1.8273    0.6736 N   0  0  0  0  0  0  0  0  0  0  0  0
    1.9210   -2.3095    0.2433 C   0  0  0  0  0  0  0  0  0  0  0  0
    2.0583   -3.8288    0.4755 C   0  0  0  0  0  0  0  0  0  0  0  0
    1.2586   -4.5354   -0.4889 O   0  0  0  0  0  0  0  0  0  0  0  0
    2.0011   -5.2156   -1.5194 C   0  0  0  0  0  0  0  0  0  0  0  0
    1.0537   -6.1591   -2.3048 C   0  0  0  0  0  0  0  0  0  0  0  0
    0.5169   -5.4910   -3.4612 O   0  0  0  0  0  0  0  0  0  0  0  0
   -0.4127   -4.4395   -3.1928 C   0  0  0  0  0  0  0  0  0  0  0  0
   -1.0238   -4.0001   -4.5340 C   0  0  0  0  0  0  0  0  0  0  0  0
   -1.9134   -2.8583   -4.3102 N   0  0  0  0  0  0  0  0  0  0  0  0
   -2.6310   -2.1810   -5.2849 C   0  0  0  0  0  0  0  0  0  0  0  0
   -2.7857   -2.6448   -6.6143 C   0  0  0  0  0  0  0  0  0  0  0  0
   -3.5240   -1.8906   -7.5617 C   0  0  0  0  0  0  0  0  0  0  0  0
   -4.1257   -0.6683   -7.1972 C   0  0  0  0  0  0  0  0  0  0  0  0
   -3.9656   -0.2261   -5.8781 C   0  0  0  0  0  0  0  0  0  0  0  0
   -3.2452   -0.9699   -4.9482 C   0  0  0  0  0  0  0  0  0  0  0  0
   -3.2573   -0.2935   -3.7498 C   0  0  0  0  0  0  0  0  0  0  0  0
   -2.4943   -0.4538   -2.8024 O   0  0  0  0  0  0  0  0  0  0  0  0
   -3.9629    0.9071   -3.9318 N   0  0  0  0  0  0  0  0  0  0  0  0
   -4.5313    1.7571   -2.8645 C   0  0  0  0  0  0  0  0  0  0  0  0
   -3.6305    2.9804   -2.5851 C   0  0  0  0  0  0  0  0  0  0  0  0
   -2.4306    2.5798   -1.6964 C   0  0  0  0  0  0  0  0  0  0  0  0
   -2.8639    1.8545   -0.4436 C   0  0  0  0  0  0  0  0  0  0  0  0
   -2.2506    1.9079    0.6154 O   0  0  0  0  0  0  0  0  0  0  0  0
   -4.0565    1.1188   -0.4563 N   0  0  0  0  0  0  0  0  0  0  0  0
   -4.8626    0.9776   -1.5959 C   0  0  0  0  0  0  0  0  0  0  0  0
   -5.8850    0.3187   -1.4623 O   0  0  0  0  0  0  0  0  0  0  0  0
   -4.4172    0.9131   -5.2560 C   0  0  0  0  0  0  0  0  0  0  0  0
   -4.9944    1.8756   -5.7466 O   0  0  0  0  0  0  0  0  0  0  0  0
    1.1248    0.6611    0.3759 H   0  0  0  0  0  0  0  0  0  0  0  0
    0.1397    1.2147    1.7221 H   0  0  0  0  0  0  0  0  0  0  0  0
    1.1476    1.2757    4.0305 H   0  0  0  0  0  0  0  0  0  0  0  0
    1.7463    1.3462    7.4989 H   0  0  0  0  0  0  0  0  0  0  0  0
   -0.5305    0.3792    7.8294 H   0  0  0  0  0  0  0  0  0  0  0  0
   -2.1127    3.0641    4.8409 H   0  0  0  0  0  0  0  0  0  0  0  0
    4.4431    5.5124    6.6270 H   0  0  0  0  0  0  0  0  0  0  0  0
    5.9119    3.0432    2.9690 H   0  0  0  0  0  0  0  0  0  0  0  0
    6.8480    2.5431    0.7916 H   0  0  0  0  0  0  0  0  0  0  0  0
    5.6043    1.1519   -0.8544 H   0  0  0  0  0  0  0  0  0  0  0  0
    3.3441    0.2595   -0.2654 H   0  0  0  0  0  0  0  0  0  0  0  0
   -0.1659   -2.4834    0.5901 H   0  0  0  0  0  0  0  0  0  0  0  0
    2.7032   -1.8007    0.8278 H   0  0  0  0  0  0  0  0  0  0  0  0
    2.0721   -2.0707   -0.8182 H   0  0  0  0  0  0  0  0  0  0  0  0
    1.7218   -4.0686    1.4937 H   0  0  0  0  0  0  0  0  0  0  0  0
    3.1167   -4.1114    0.4029 H   0  0  0  0  0  0  0  0  0  0  0  0
    2.7842   -5.8302   -1.0598 H   0  0  0  0  0  0  0  0  0  0  0  0
    2.4830   -4.5029   -2.2059 H   0  0  0  0  0  0  0  0  0  0  0  0
    0.2534   -6.5301   -1.6510 H   0  0  0  0  0  0  0  0  0  0  0  0
    1.6340   -7.0310   -2.6318 H   0  0  0  0  0  0  0  0  0  0  0  0
   -1.2119   -4.7939   -2.5281 H   0  0  0  0  0  0  0  0  0  0  0  0
    0.0906   -3.5900   -2.7118 H   0  0  0  0  0  0  0  0  0  0  0  0
   -0.2258   -3.7225   -5.2340 H   0  0  0  0  0  0  0  0  0  0  0  0
   -1.5854   -4.8377   -4.9639 H   0  0  0  0  0  0  0  0  0  0  0  0
   -1.9138   -2.4273   -3.3919 H   0  0  0  0  0  0  0  0  0  0  0  0
   -2.3463   -3.5890   -6.9222 H   0  0  0  0  0  0  0  0  0  0  0  0
   -3.6299   -2.2564   -8.5792 H   0  0  0  0  0  0  0  0  0  0  0  0
   -4.6981   -0.0833   -7.9121 H   0  0  0  0  0  0  0  0  0  0  0  0
   -5.4872    2.1418   -3.2458 H   0  0  0  0  0  0  0  0  0  0  0  0
   -4.2286    3.7414   -2.0670 H   0  0  0  0  0  0  0  0  0  0  0  0
   -3.2922    3.4275   -3.5302 H   0  0  0  0  0  0  0  0  0  0  0  0
   -1.7390    1.9406   -2.2563 H   0  0  0  0  0  0  0  0  0  0  0  0
   -1.8660    3.4732   -1.4147 H   0  0  0  0  0  0  0  0  0  0  0  0
   -4.3201    0.6136    0.3752 H   0  0  0  0  0  0  0  0  0  0  0  0
  1  2  2  0  0  0  0
  2  3  1  0  0  0  0
  2 28  1  0  0  0  0
  3  4  1  0  0  0  0
  3 57  1  0  0  0  0
  3 58  1  0  0  0  0
  4  5  1  0  0  0  0
  4 27  1  0  0  0  0
  5  6  2  0  0  0  0
  5 59  1  0  0  0  0
  6  7  1  0  0  0  0
  6 22  1  0  0  0  0
  7  8  2  0  0  0  0
  7 20  1  0  0  0  0
  8  9  1  0  0  0  0
  8 17  1  0  0  0  0
  9 10  2  0  0  0  0
  9 15  1  0  0  0  0
 10 11  1  0  0  0  0
 10 60  1  0  0  0  0
 11 12  2  0  0  0  0
 11 61  1  0  0  0  0
 12 13  1  0  0  0  0
 12 14  1  0  0  0  0
 14 15  2  0  0  0  0
 14 62  1  0  0  0  0
 15 16  1  0  0  0  0
 17 18  2  0  0  0  0
 17 19  1  0  0  0  0
 19 20  1  0  0  0  0
 19 63  1  0  0  0  0
 20 21  2  0  0  0  0
 22 23  2  0  0  0  0
 22 27  1  0  0  0  0
 23 24  1  0  0  0  0
 23 64  1  0  0  0  0
 24 25  2  0  0  0  0
 24 65  1  0  0  0  0
 25 26  1  0  0  0  0
 25 66  1  0  0  0  0
 26 27  2  0  0  0  0
 26 67  1  0  0  0  0
 28 29  1  0  0  0  0
 28 68  1  0  0  0  0
 29 30  1  0  0  0  0
 29 69  1  0  0  0  0
 29 70  1  0  0  0  0
 30 31  1  0  0  0  0
 30 71  1  0  0  0  0
 30 72  1  0  0  0  0
 31 32  1  0  0  0  0
 32 33  1  0  0  0  0
 32 73  1  0  0  0  0
 32 74  1  0  0  0  0
 33 34  1  0  0  0  0
 33 75  1  0  0  0  0
 33 76  1  0  0  0  0
 34 35  1  0  0  0  0
 35 36  1  0  0  0  0
 35 77  1  0  0  0  0
 35 78  1  0  0  0  0
 36 37  1  0  0  0  0
 36 79  1  0  0  0  0
 36 80  1  0  0  0  0
 37 38  1  0  0  0  0
 37 81  1  0  0  0  0
 38 39  2  0  0  0  0
 38 43  1  0  0  0  0
 39 40  1  0  0  0  0
 39 82  1  0  0  0  0
 40 41  2  0  0  0  0
 40 83  1  0  0  0  0
 41 42  1  0  0  0  0
 41 84  1  0  0  0  0
 42 43  2  0  0  0  0
 42 55  1  0  0  0  0
 43 44  1  0  0  0  0
 44 45  2  0  0  0  0
 44 46  1  0  0  0  0
 46 47  1  0  0  0  0
 46 55  1  0  0  0  0
 47 48  1  0  0  0  0
 47 53  1  0  0  0  0
 47 85  1  0  0  0  0
 48 49  1  0  0  0  0
 48 86  1  0  0  0  0
 48 87  1  0  0  0  0
 49 50  1  0  0  0  0
 49 88  1  0  0  0  0
 49 89  1  0  0  0  0
 50 51  2  0  0  0  0
 50 52  1  0  0  0  0
 52 53  1  0  0  0  0
 52 90  1  0  0  0  0
 53 54  2  0  0  0  0
 55 56  2  0  0  0  0
M  END
$$$$
protac3895RUN2
  chem.cr 07102519423D
protac3895RUN2
 90 96  0  0  0  0  0  0  0  0999 V2000
    3.4224   -1.4483    3.1659 O   0  0  0  0  0  0  0  0  0  0  0  0
    2.7605   -0.5159    2.7308 C   0  0  0  0  0  0  0  0  0  0  0  0
    3.0169    0.9435    3.0476 C   0  0  0  0  0  0  0  0  0  0  0  0
    3.9247    1.1943    4.1880 N   0  0  0  0  0  0  0  0  0  0  0  0
    3.4556    1.9931    5.2347 C   0  0  0  0  0  0  0  0  0  0  0  0
    4.3984    2.8566    5.6813 C   0  0  0  0  0  0  0  0  0  0  0  0
    4.3078    3.7195    6.7447 C   0  0  0  0  0  0  0  0  0  0  0  0
    3.1836    3.9931    7.4564 C   0  0  0  0  0  0  0  0  0  0  0  0
    1.9228    3.4708    7.2502 C   0  0  0  0  0  0  0  0  0  0  0  0
    1.4765    2.4207    8.0753 C   0  0  0  0  0  0  0  0  0  0  0  0
    0.2019    1.8595    7.8854 C   0  0  0  0  0  0  0  0  0  0  0  0
   -0.6371    2.3559    6.8742 C   0  0  0  0  0  0  0  0  0  0  0  0
   -2.2426    1.6734    6.6479 Cl  0  0  0  0  0  0  0  0  0  0  0  0
   -0.2013    3.4060    6.0504 C   0  0  0  0  0  0  0  0  0  0  0  0
    1.0754    3.9636    6.2339 C   0  0  0  0  0  0  0  0  0  0  0  0
    1.6041    5.2746    5.1814 Cl  0  0  0  0  0  0  0  0  0  0  0  0
    3.4146    4.8518    8.4461 C   0  0  0  0  0  0  0  0  0  0  0  0
    2.7081    5.3349    9.3215 O   0  0  0  0  0  0  0  0  0  0  0  0
    4.7463    5.2059    8.4065 N   0  0  0  0  0  0  0  0  0  0  0  0
    5.2768    4.4400    7.3716 C   0  0  0  0  0  0  0  0  0  0  0  0
    6.4959    4.4953    7.2899 O   0  0  0  0  0  0  0  0  0  0  0  0
    5.5065    2.6343    4.8407 C   0  0  0  0  0  0  0  0  0  0  0  0
    6.6909    3.3650    4.5988 C   0  0  0  0  0  0  0  0  0  0  0  0
    7.6255    2.8846    3.6534 C   0  0  0  0  0  0  0  0  0  0  0  0
    7.3590    1.7226    2.8990 C   0  0  0  0  0  0  0  0  0  0  0  0
    6.1251    1.0675    3.0398 C   0  0  0  0  0  0  0  0  0  0  0  0
    5.2248    1.5631    3.9882 C   0  0  0  0  0  0  0  0  0  0  0  0
    1.8528   -0.7614    1.6857 N   0  0  0  0  0  0  0  0  0  0  0  0
    1.3823   -2.1054    1.3024 C   0  0  0  0  0  0  0  0  0  0  0  0
    1.9576   -2.5575   -0.0509 C   0  0  0  0  0  0  0  0  0  0  0  0
    1.1935   -3.6937   -0.4704 O   0  0  0  0  0  0  0  0  0  0  0  0
    1.5980   -4.2690   -1.7190 C   0  0  0  0  0  0  0  0  0  0  0  0
    0.6459   -5.4465   -2.0297 C   0  0  0  0  0  0  0  0  0  0  0  0
    0.0660   -5.2698   -3.3348 O   0  0  0  0  0  0  0  0  0  0  0  0
   -1.0011   -4.3127   -3.4382 C   0  0  0  0  0  0  0  0  0  0  0  0
   -1.4290   -4.2918   -4.9166 C   0  0  0  0  0  0  0  0  0  0  0  0
   -2.5656   -3.3808   -5.1263 N   0  0  0  0  0  0  0  0  0  0  0  0
   -3.2703   -3.2416   -6.3186 C   0  0  0  0  0  0  0  0  0  0  0  0
   -2.9485   -3.9663   -7.4916 C   0  0  0  0  0  0  0  0  0  0  0  0
   -3.6838   -3.7882   -8.6895 C   0  0  0  0  0  0  0  0  0  0  0  0
   -4.7648   -2.8853   -8.7374 C   0  0  0  0  0  0  0  0  0  0  0  0
   -5.0808   -2.1825   -7.5694 C   0  0  0  0  0  0  0  0  0  0  0  0
   -4.3486   -2.3485   -6.3939 C   0  0  0  0  0  0  0  0  0  0  0  0
   -4.8583   -1.4945   -5.4426 C   0  0  0  0  0  0  0  0  0  0  0  0
   -4.2702   -1.0988   -4.4443 O   0  0  0  0  0  0  0  0  0  0  0  0
   -5.9082   -0.7674   -6.0334 N   0  0  0  0  0  0  0  0  0  0  0  0
   -6.7352    0.3097   -5.4352 C   0  0  0  0  0  0  0  0  0  0  0  0
   -6.3185    1.6976   -5.9681 C   0  0  0  0  0  0  0  0  0  0  0  0
   -4.9561    2.0980   -5.3611 C   0  0  0  0  0  0  0  0  0  0  0  0
   -4.9597    2.0029   -3.8497 C   0  0  0  0  0  0  0  0  0  0  0  0
   -4.2375    2.6815   -3.1342 O   0  0  0  0  0  0  0  0  0  0  0  0
   -5.9206    1.2045   -3.2146 N   0  0  0  0  0  0  0  0  0  0  0  0
   -6.7425    0.3044   -3.9116 C   0  0  0  0  0  0  0  0  0  0  0  0
   -7.5609   -0.3148   -3.2475 O   0  0  0  0  0  0  0  0  0  0  0  0
   -6.0519   -1.2397   -7.3407 C   0  0  0  0  0  0  0  0  0  0  0  0
   -6.8367   -0.7436   -8.1410 O   0  0  0  0  0  0  0  0  0  0  0  0
    3.4525    1.4215    2.1636 H   0  0  0  0  0  0  0  0  0  0  0  0
    2.0583    1.4406    3.2412 H   0  0  0  0  0  0  0  0  0  0  0  0
    2.4539    1.7909    5.5954 H   0  0  0  0  0  0  0  0  0  0  0  0
    2.1251    2.0404    8.8600 H   0  0  0  0  0  0  0  0  0  0  0  0
   -0.1367    1.0505    8.5283 H   0  0  0  0  0  0  0  0  0  0  0  0
   -0.8600    3.7960    5.2785 H   0  0  0  0  0  0  0  0  0  0  0  0
    5.2751    5.5140    9.2064 H   0  0  0  0  0  0  0  0  0  0  0  0
    6.8951    4.3158    5.0680 H   0  0  0  0  0  0  0  0  0  0  0  0
    8.5550    3.4251    3.4951 H   0  0  0  0  0  0  0  0  0  0  0  0
    8.0886    1.3580    2.1819 H   0  0  0  0  0  0  0  0  0  0  0  0
    5.8713    0.2065    2.4287 H   0  0  0  0  0  0  0  0  0  0  0  0
    1.4682    0.0351    1.1953 H   0  0  0  0  0  0  0  0  0  0  0  0
    0.2848   -2.0928    1.2409 H   0  0  0  0  0  0  0  0  0  0  0  0
    1.6632   -2.8376    2.0724 H   0  0  0  0  0  0  0  0  0  0  0  0
    3.0214   -2.8112    0.0634 H   0  0  0  0  0  0  0  0  0  0  0  0
    1.8686   -1.7475   -0.7860 H   0  0  0  0  0  0  0  0  0  0  0  0
    2.6289   -4.6433   -1.6560 H   0  0  0  0  0  0  0  0  0  0  0  0
    1.5573   -3.5209   -2.5220 H   0  0  0  0  0  0  0  0  0  0  0  0
   -0.1351   -5.5249   -1.2624 H   0  0  0  0  0  0  0  0  0  0  0  0
    1.2257   -6.3784   -2.0038 H   0  0  0  0  0  0  0  0  0  0  0  0
   -1.8498   -4.6154   -2.8093 H   0  0  0  0  0  0  0  0  0  0  0  0
   -0.6739   -3.3127   -3.1239 H   0  0  0  0  0  0  0  0  0  0  0  0
   -0.5801   -3.9653   -5.5301 H   0  0  0  0  0  0  0  0  0  0  0  0
   -1.7037   -5.3115   -5.2198 H   0  0  0  0  0  0  0  0  0  0  0  0
   -2.8511   -2.7702   -4.3645 H   0  0  0  0  0  0  0  0  0  0  0  0
   -2.1223   -4.6691   -7.4869 H   0  0  0  0  0  0  0  0  0  0  0  0
   -3.4123   -4.3515   -9.5801 H   0  0  0  0  0  0  0  0  0  0  0  0
   -5.3338   -2.7320   -9.6501 H   0  0  0  0  0  0  0  0  0  0  0  0
   -7.7711    0.1279   -5.7517 H   0  0  0  0  0  0  0  0  0  0  0  0
   -7.0771    2.4386   -5.6738 H   0  0  0  0  0  0  0  0  0  0  0  0
   -6.2786    1.6960   -7.0654 H   0  0  0  0  0  0  0  0  0  0  0  0
   -4.1591    1.4539   -5.7539 H   0  0  0  0  0  0  0  0  0  0  0  0
   -4.7077    3.1265   -5.6513 H   0  0  0  0  0  0  0  0  0  0  0  0
   -5.9333    1.1824   -2.2075 H   0  0  0  0  0  0  0  0  0  0  0  0
  1  2  2  0  0  0  0
  2  3  1  0  0  0  0
  2 28  1  0  0  0  0
  3  4  1  0  0  0  0
  3 57  1  0  0  0  0
  3 58  1  0  0  0  0
  4  5  1  0  0  0  0
  4 27  1  0  0  0  0
  5  6  2  0  0  0  0
  5 59  1  0  0  0  0
  6  7  1  0  0  0  0
  6 22  1  0  0  0  0
  7  8  2  0  0  0  0
  7 20  1  0  0  0  0
  8  9  1  0  0  0  0
  8 17  1  0  0  0  0
  9 10  2  0  0  0  0
  9 15  1  0  0  0  0
 10 11  1  0  0  0  0
 10 60  1  0  0  0  0
 11 12  2  0  0  0  0
 11 61  1  0  0  0  0
 12 13  1  0  0  0  0
 12 14  1  0  0  0  0
 14 15  2  0  0  0  0
 14 62  1  0  0  0  0
 15 16  1  0  0  0  0
 17 18  2  0  0  0  0
 17 19  1  0  0  0  0
 19 20  1  0  0  0  0
 19 63  1  0  0  0  0
 20 21  2  0  0  0  0
 22 23  2  0  0  0  0
 22 27  1  0  0  0  0
 23 24  1  0  0  0  0
 23 64  1  0  0  0  0
 24 25  2  0  0  0  0
 24 65  1  0  0  0  0
 25 26  1  0  0  0  0
 25 66  1  0  0  0  0
 26 27  2  0  0  0  0
 26 67  1  0  0  0  0
 28 29  1  0  0  0  0
 28 68  1  0  0  0  0
 29 30  1  0  0  0  0
 29 69  1  0  0  0  0
 29 70  1  0  0  0  0
 30 31  1  0  0  0  0
 30 71  1  0  0  0  0
 30 72  1  0  0  0  0
 31 32  1  0  0  0  0
 32 33  1  0  0  0  0
 32 73  1  0  0  0  0
 32 74  1  0  0  0  0
 33 34  1  0  0  0  0
 33 75  1  0  0  0  0
 33 76  1  0  0  0  0
 34 35  1  0  0  0  0
 35 36  1  0  0  0  0
 35 77  1  0  0  0  0
 35 78  1  0  0  0  0
 36 37  1  0  0  0  0
 36 79  1  0  0  0  0
 36 80  1  0  0  0  0
 37 38  1  0  0  0  0
 37 81  1  0  0  0  0
 38 39  2  0  0  0  0
 38 43  1  0  0  0  0
 39 40  1  0  0  0  0
 39 82  1  0  0  0  0
 40 41  2  0  0  0  0
 40 83  1  0  0  0  0
 41 42  1  0  0  0  0
 41 84  1  0  0  0  0
 42 43  2  0  0  0  0
 42 55  1  0  0  0  0
 43 44  1  0  0  0  0
 44 45  2  0  0  0  0
 44 46  1  0  0  0  0
 46 47  1  0  0  0  0
 46 55  1  0  0  0  0
 47 48  1  0  0  0  0
 47 53  1  0  0  0  0
 47 85  1  0  0  0  0
 48 49  1  0  0  0  0
 48 86  1  0  0  0  0
 48 87  1  0  0  0  0
 49 50  1  0  0  0  0
 49 88  1  0  0  0  0
 49 89  1  0  0  0  0
 50 51  2  0  0  0  0
 50 52  1  0  0  0  0
 52 53  1  0  0  0  0
 52 90  1  0  0  0  0
 53 54  2  0  0  0  0
 55 56  2  0  0  0  0
M  END
$$$$
protac3895RUN2
  chem.cr 07102519423D
protac3895RUN2
 90 96  0  0  0  0  0  0  0  0999 V2000
    4.1092    2.5062   -1.6403 O   0  0  0  0  0  0  0  0  0  0  0  0
    3.0537    2.1499   -1.1336 C   0  0  0  0  0  0  0  0  0  0  0  0
    1.8731    3.0711   -0.9436 C   0  0  0  0  0  0  0  0  0  0  0  0
    1.8358    3.7866    0.3499 N   0  0  0  0  0  0  0  0  0  0  0  0
    2.8670    3.7933    1.2925 C   0  0  0  0  0  0  0  0  0  0  0  0
    2.4531    4.3465    2.4597 C   0  0  0  0  0  0  0  0  0  0  0  0
    3.2274    4.6684    3.5492 C   0  0  0  0  0  0  0  0  0  0  0  0
    4.5359    4.3414    3.7276 C   0  0  0  0  0  0  0  0  0  0  0  0
    5.3320    3.6086    2.8705 C   0  0  0  0  0  0  0  0  0  0  0  0
    6.1157    4.2830    1.9147 C   0  0  0  0  0  0  0  0  0  0  0  0
    6.9064    3.5589    1.0053 C   0  0  0  0  0  0  0  0  0  0  0  0
    6.9401    2.1581    1.0701 C   0  0  0  0  0  0  0  0  0  0  0  0
    7.9265    1.2580   -0.0742 Cl  0  0  0  0  0  0  0  0  0  0  0  0
    6.1926    1.4792    2.0461 C   0  0  0  0  0  0  0  0  0  0  0  0
    5.3786    2.2000    2.9371 C   0  0  0  0  0  0  0  0  0  0  0  0
    4.4193    1.3251    4.1272 Cl  0  0  0  0  0  0  0  0  0  0  0  0
    5.0209    4.8079    4.8777 C   0  0  0  0  0  0  0  0  0  0  0  0
    6.1146    4.7326    5.4238 O   0  0  0  0  0  0  0  0  0  0  0  0
    4.0194    5.5199    5.5023 N   0  0  0  0  0  0  0  0  0  0  0  0
    2.9190    5.4017    4.6560 C   0  0  0  0  0  0  0  0  0  0  0  0
    1.9444    6.0392    5.0263 O   0  0  0  0  0  0  0  0  0  0  0  0
    1.0703    4.5810    2.2742 C   0  0  0  0  0  0  0  0  0  0  0  0
    0.0135    4.8561    3.1721 C   0  0  0  0  0  0  0  0  0  0  0  0
   -1.3006    5.0100    2.6774 C   0  0  0  0  0  0  0  0  0  0  0  0
   -1.5893    4.8269    1.3105 C   0  0  0  0  0  0  0  0  0  0  0  0
   -0.5701    4.4269    0.4310 C   0  0  0  0  0  0  0  0  0  0  0  0
    0.7228    4.2932    0.9498 C   0  0  0  0  0  0  0  0  0  0  0  0
    2.8887    0.8148   -0.7335 N   0  0  0  0  0  0  0  0  0  0  0  0
    3.9383   -0.2068   -0.8749 C   0  0  0  0  0  0  0  0  0  0  0  0
    4.0842   -1.0437    0.4116 C   0  0  0  0  0  0  0  0  0  0  0  0
    2.8702   -1.7613    0.6891 O   0  0  0  0  0  0  0  0  0  0  0  0
    2.5472   -2.8417   -0.2020 C   0  0  0  0  0  0  0  0  0  0  0  0
    1.3232   -3.5716    0.3710 C   0  0  0  0  0  0  0  0  0  0  0  0
    0.7018   -4.2677   -0.7147 O   0  0  0  0  0  0  0  0  0  0  0  0
   -0.3344   -5.1800   -0.3344 C   0  0  0  0  0  0  0  0  0  0  0  0
   -1.0744   -5.5876   -1.6202 C   0  0  0  0  0  0  0  0  0  0  0  0
   -2.0563   -4.5519   -1.9731 N   0  0  0  0  0  0  0  0  0  0  0  0
   -2.8043   -4.5284   -3.1422 C   0  0  0  0  0  0  0  0  0  0  0  0
   -2.3612   -5.1013   -4.3558 C   0  0  0  0  0  0  0  0  0  0  0  0
   -3.1602   -5.0352   -5.5271 C   0  0  0  0  0  0  0  0  0  0  0  0
   -4.4158   -4.3923   -5.5070 C   0  0  0  0  0  0  0  0  0  0  0  0
   -4.8439   -3.8310   -4.2979 C   0  0  0  0  0  0  0  0  0  0  0  0
   -4.0573   -3.9027   -3.1483 C   0  0  0  0  0  0  0  0  0  0  0  0
   -4.7444   -3.2868   -2.1278 C   0  0  0  0  0  0  0  0  0  0  0  0
   -4.3615   -3.0804   -0.9827 O   0  0  0  0  0  0  0  0  0  0  0  0
   -5.9522   -2.7881   -2.6400 N   0  0  0  0  0  0  0  0  0  0  0  0
   -7.0957   -2.2328   -1.8819 C   0  0  0  0  0  0  0  0  0  0  0  0
   -6.9702   -0.7025   -1.7114 C   0  0  0  0  0  0  0  0  0  0  0  0
   -5.9721   -0.3575   -0.5811 C   0  0  0  0  0  0  0  0  0  0  0  0
   -6.2597   -1.1176    0.6972 C   0  0  0  0  0  0  0  0  0  0  0  0
   -5.9545   -0.7046    1.8067 O   0  0  0  0  0  0  0  0  0  0  0  0
   -6.9724   -2.3213    0.6451 N   0  0  0  0  0  0  0  0  0  0  0  0
   -7.3356   -2.9473   -0.5564 C   0  0  0  0  0  0  0  0  0  0  0  0
   -8.0090   -3.9635   -0.4574 O   0  0  0  0  0  0  0  0  0  0  0  0
   -6.0055   -3.1600   -3.9883 C   0  0  0  0  0  0  0  0  0  0  0  0
   -6.8671   -2.7348   -4.7501 O   0  0  0  0  0  0  0  0  0  0  0  0
    1.8987    3.8205   -1.7434 H   0  0  0  0  0  0  0  0  0  0  0  0
    0.9479    2.4962   -1.0549 H   0  0  0  0  0  0  0  0  0  0  0  0
    3.8500    3.4715    0.9674 H   0  0  0  0  0  0  0  0  0  0  0  0
    6.0926    5.3690    1.8680 H   0  0  0  0  0  0  0  0  0  0  0  0
    7.4948    4.0800    0.2550 H   0  0  0  0  0  0  0  0  0  0  0  0
    6.2455    0.3971    2.1146 H   0  0  0  0  0  0  0  0  0  0  0  0
    3.9690    5.7049    6.4919 H   0  0  0  0  0  0  0  0  0  0  0  0
    0.1530    4.8966    4.2396 H   0  0  0  0  0  0  0  0  0  0  0  0
   -2.1059    5.2494    3.3664 H   0  0  0  0  0  0  0  0  0  0  0  0
   -2.6090    4.9391    0.9518 H   0  0  0  0  0  0  0  0  0  0  0  0
   -0.7880    4.2141   -0.6104 H   0  0  0  0  0  0  0  0  0  0  0  0
    2.0471    0.5612   -0.2271 H   0  0  0  0  0  0  0  0  0  0  0  0
    4.9003    0.2812   -1.0858 H   0  0  0  0  0  0  0  0  0  0  0  0
    3.7074   -0.8485   -1.7337 H   0  0  0  0  0  0  0  0  0  0  0  0
    4.2993   -0.3626    1.2438 H   0  0  0  0  0  0  0  0  0  0  0  0
    4.9302   -1.7351    0.3116 H   0  0  0  0  0  0  0  0  0  0  0  0
    3.3817   -3.5506   -0.2837 H   0  0  0  0  0  0  0  0  0  0  0  0
    2.3009   -2.4672   -1.2035 H   0  0  0  0  0  0  0  0  0  0  0  0
    0.6270   -2.8390    0.7996 H   0  0  0  0  0  0  0  0  0  0  0  0
    1.6407   -4.2657    1.1609 H   0  0  0  0  0  0  0  0  0  0  0  0
    0.1029   -6.0684    0.1399 H   0  0  0  0  0  0  0  0  0  0  0  0
   -1.0369   -4.7198    0.3751 H   0  0  0  0  0  0  0  0  0  0  0  0
   -0.3390   -5.7262   -2.4243 H   0  0  0  0  0  0  0  0  0  0  0  0
   -1.5967   -6.5399   -1.4549 H   0  0  0  0  0  0  0  0  0  0  0  0
   -2.4347   -3.9875   -1.2157 H   0  0  0  0  0  0  0  0  0  0  0  0
   -1.3930   -5.5842   -4.4060 H   0  0  0  0  0  0  0  0  0  0  0  0
   -2.7994   -5.4799   -6.4529 H   0  0  0  0  0  0  0  0  0  0  0  0
   -5.0338   -4.3362   -6.3991 H   0  0  0  0  0  0  0  0  0  0  0  0
   -7.9943   -2.4188   -2.4855 H   0  0  0  0  0  0  0  0  0  0  0  0
   -7.9573   -0.2950   -1.4527 H   0  0  0  0  0  0  0  0  0  0  0  0
   -6.6642   -0.2364   -2.6588 H   0  0  0  0  0  0  0  0  0  0  0  0
   -4.9449   -0.5780   -0.8994 H   0  0  0  0  0  0  0  0  0  0  0  0
   -6.0059    0.7193   -0.3749 H   0  0  0  0  0  0  0  0  0  0  0  0
   -7.1643   -2.8022    1.5099 H   0  0  0  0  0  0  0  0  0  0  0  0
  1  2  2  0  0  0  0
  2  3  1  0  0  0  0
  2 28  1  0  0  0  0
  3  4  1  0  0  0  0
  3 57  1  0  0  0  0
  3 58  1  0  0  0  0
  4  5  1  0  0  0  0
  4 27  1  0  0  0  0
  5  6  2  0  0  0  0
  5 59  1  0  0  0  0
  6  7  1  0  0  0  0
  6 22  1  0  0  0  0
  7  8  2  0  0  0  0
  7 20  1  0  0  0  0
  8  9  1  0  0  0  0
  8 17  1  0  0  0  0
  9 10  2  0  0  0  0
  9 15  1  0  0  0  0
 10 11  1  0  0  0  0
 10 60  1  0  0  0  0
 11 12  2  0  0  0  0
 11 61  1  0  0  0  0
 12 13  1  0  0  0  0
 12 14  1  0  0  0  0
 14 15  2  0  0  0  0
 14 62  1  0  0  0  0
 15 16  1  0  0  0  0
 17 18  2  0  0  0  0
 17 19  1  0  0  0  0
 19 20  1  0  0  0  0
 19 63  1  0  0  0  0
 20 21  2  0  0  0  0
 22 23  2  0  0  0  0
 22 27  1  0  0  0  0
 23 24  1  0  0  0  0
 23 64  1  0  0  0  0
 24 25  2  0  0  0  0
 24 65  1  0  0  0  0
 25 26  1  0  0  0  0
 25 66  1  0  0  0  0
 26 27  2  0  0  0  0
 26 67  1  0  0  0  0
 28 29  1  0  0  0  0
 28 68  1  0  0  0  0
 29 30  1  0  0  0  0
 29 69  1  0  0  0  0
 29 70  1  0  0  0  0
 30 31  1  0  0  0  0
 30 71  1  0  0  0  0
 30 72  1  0  0  0  0
 31 32  1  0  0  0  0
 32 33  1  0  0  0  0
 32 73  1  0  0  0  0
 32 74  1  0  0  0  0
 33 34  1  0  0  0  0
 33 75  1  0  0  0  0
 33 76  1  0  0  0  0
 34 35  1  0  0  0  0
 35 36  1  0  0  0  0
 35 77  1  0  0  0  0
 35 78  1  0  0  0  0
 36 37  1  0  0  0  0
 36 79  1  0  0  0  0
 36 80  1  0  0  0  0
 37 38  1  0  0  0  0
 37 81  1  0  0  0  0
 38 39  2  0  0  0  0
 38 43  1  0  0  0  0
 39 40  1  0  0  0  0
 39 82  1  0  0  0  0
 40 41  2  0  0  0  0
 40 83  1  0  0  0  0
 41 42  1  0  0  0  0
 41 84  1  0  0  0  0
 42 43  2  0  0  0  0
 42 55  1  0  0  0  0
 43 44  1  0  0  0  0
 44 45  2  0  0  0  0
 44 46  1  0  0  0  0
 46 47  1  0  0  0  0
 46 55  1  0  0  0  0
 47 48  1  0  0  0  0
 47 53  1  0  0  0  0
 47 85  1  0  0  0  0
 48 49  1  0  0  0  0
 48 86  1  0  0  0  0
 48 87  1  0  0  0  0
 49 50  1  0  0  0  0
 49 88  1  0  0  0  0
 49 89  1  0  0  0  0
 50 51  2  0  0  0  0
 50 52  1  0  0  0  0
 52 53  1  0  0  0  0
 52 90  1  0  0  0  0
 53 54  2  0  0  0  0
 55 56  2  0  0  0  0
M  END
$$$$
protac3895RUN2
  chem.cr 07102519423D
protac3895RUN2
 90 96  0  0  0  0  0  0  0  0999 V2000
    1.4779    4.0851   -5.2806 O   0  0  0  0  0  0  0  0  0  0  0  0
    1.9727    3.6126   -4.2664 C   0  0  0  0  0  0  0  0  0  0  0  0
    1.5139    3.9829   -2.8742 C   0  0  0  0  0  0  0  0  0  0  0  0
    0.9598    2.8466   -2.1057 N   0  0  0  0  0  0  0  0  0  0  0  0
    1.2815    2.5769   -0.7748 C   0  0  0  0  0  0  0  0  0  0  0  0
    0.3702    1.7432   -0.2187 C   0  0  0  0  0  0  0  0  0  0  0  0
    0.2472    1.3999    1.1074 C   0  0  0  0  0  0  0  0  0  0  0  0
    1.1157    1.7082    2.1032 C   0  0  0  0  0  0  0  0  0  0  0  0
    2.2780    2.4448    1.9880 C   0  0  0  0  0  0  0  0  0  0  0  0
    2.2066    3.8498    2.0885 C   0  0  0  0  0  0  0  0  0  0  0  0
    3.3619    4.6339    1.9219 C   0  0  0  0  0  0  0  0  0  0  0  0
    4.5964    4.0124    1.6819 C   0  0  0  0  0  0  0  0  0  0  0  0
    6.0497    4.9884    1.5071 Cl  0  0  0  0  0  0  0  0  0  0  0  0
    4.6826    2.6117    1.6168 C   0  0  0  0  0  0  0  0  0  0  0  0
    3.5273    1.8271    1.7753 C   0  0  0  0  0  0  0  0  0  0  0  0
    3.6728    0.0713    1.7430 Cl  0  0  0  0  0  0  0  0  0  0  0  0
    0.7125    1.2362    3.2832 C   0  0  0  0  0  0  0  0  0  0  0  0
    1.1900    1.2769    4.4099 O   0  0  0  0  0  0  0  0  0  0  0  0
   -0.5072    0.6171    3.1062 N   0  0  0  0  0  0  0  0  0  0  0  0
   -0.7620    0.7446    1.7423 C   0  0  0  0  0  0  0  0  0  0  0  0
   -1.8671    0.3472    1.4095 O   0  0  0  0  0  0  0  0  0  0  0  0
   -0.4779    1.3745   -1.2852 C   0  0  0  0  0  0  0  0  0  0  0  0
   -1.4090    0.3247   -1.4512 C   0  0  0  0  0  0  0  0  0  0  0  0
   -2.1163    0.2091   -2.6676 C   0  0  0  0  0  0  0  0  0  0  0  0
   -1.8566    1.0804   -3.7466 C   0  0  0  0  0  0  0  0  0  0  0  0
   -0.8381    2.0379   -3.6376 C   0  0  0  0  0  0  0  0  0  0  0  0
   -0.1567    2.1304   -2.4185 C   0  0  0  0  0  0  0  0  0  0  0  0
    2.7271    2.4402   -4.3810 N   0  0  0  0  0  0  0  0  0  0  0  0
    2.2967    1.3451   -5.2586 C   0  0  0  0  0  0  0  0  0  0  0  0
    3.3344    0.2071   -5.2899 C   0  0  0  0  0  0  0  0  0  0  0  0
    3.7902   -0.0700   -3.9536 O   0  0  0  0  0  0  0  0  0  0  0  0
    2.8553   -0.7057   -3.0676 C   0  0  0  0  0  0  0  0  0  0  0  0
    3.5861   -0.8979   -1.7250 C   0  0  0  0  0  0  0  0  0  0  0  0
    3.0632   -2.0530   -1.0544 O   0  0  0  0  0  0  0  0  0  0  0  0
    1.7173   -1.9554   -0.5781 C   0  0  0  0  0  0  0  0  0  0  0  0
    1.4277   -3.2754    0.1518 C   0  0  0  0  0  0  0  0  0  0  0  0
    0.1017   -3.2464    0.7837 N   0  0  0  0  0  0  0  0  0  0  0  0
   -1.1113   -3.1845    0.1075 C   0  0  0  0  0  0  0  0  0  0  0  0
   -1.2332   -3.4002   -1.2862 C   0  0  0  0  0  0  0  0  0  0  0  0
   -2.4891   -3.2951   -1.9314 C   0  0  0  0  0  0  0  0  0  0  0  0
   -3.6457   -2.9683   -1.1969 C   0  0  0  0  0  0  0  0  0  0  0  0
   -3.5124   -2.7693    0.1813 C   0  0  0  0  0  0  0  0  0  0  0  0
   -2.2796   -2.8877    0.8185 C   0  0  0  0  0  0  0  0  0  0  0  0
   -2.4663   -2.6624    2.1649 C   0  0  0  0  0  0  0  0  0  0  0  0
   -1.6105   -2.3410    2.9838 O   0  0  0  0  0  0  0  0  0  0  0  0
   -3.8300   -2.4003    2.3795 N   0  0  0  0  0  0  0  0  0  0  0  0
   -4.5610   -2.5441    3.6596 C   0  0  0  0  0  0  0  0  0  0  0  0
   -5.0390   -1.1713    4.1777 C   0  0  0  0  0  0  0  0  0  0  0  0
   -3.8369   -0.3830    4.7402 C   0  0  0  0  0  0  0  0  0  0  0  0
   -3.0664   -1.1820    5.7708 C   0  0  0  0  0  0  0  0  0  0  0  0
   -2.4531   -0.6714    6.6948 O   0  0  0  0  0  0  0  0  0  0  0  0
   -3.1120   -2.5823    5.7328 N   0  0  0  0  0  0  0  0  0  0  0  0
   -3.7781   -3.2982    4.7276 C   0  0  0  0  0  0  0  0  0  0  0  0
   -3.7872   -4.5158    4.8348 O   0  0  0  0  0  0  0  0  0  0  0  0
   -4.4555   -2.4560    1.1284 C   0  0  0  0  0  0  0  0  0  0  0  0
   -5.6728   -2.3869    0.9939 O   0  0  0  0  0  0  0  0  0  0  0  0
    2.3535    4.4230   -2.3272 H   0  0  0  0  0  0  0  0  0  0  0  0
    0.7326    4.7469   -2.9573 H   0  0  0  0  0  0  0  0  0  0  0  0
    2.1123    3.1163   -0.3383 H   0  0  0  0  0  0  0  0  0  0  0  0
    1.2487    4.3266    2.2812 H   0  0  0  0  0  0  0  0  0  0  0  0
    3.3035    5.7176    1.9897 H   0  0  0  0  0  0  0  0  0  0  0  0
    5.6464    2.1337    1.4608 H   0  0  0  0  0  0  0  0  0  0  0  0
   -0.8066   -0.1870    3.6406 H   0  0  0  0  0  0  0  0  0  0  0  0
   -1.5776   -0.4333   -0.6988 H   0  0  0  0  0  0  0  0  0  0  0  0
   -2.8637   -0.5710   -2.7771 H   0  0  0  0  0  0  0  0  0  0  0  0
   -2.4143    0.9794   -4.6752 H   0  0  0  0  0  0  0  0  0  0  0  0
   -0.5841    2.6756   -4.4795 H   0  0  0  0  0  0  0  0  0  0  0  0
    3.3214    2.1818   -3.6024 H   0  0  0  0  0  0  0  0  0  0  0  0
    2.1378    1.7357   -6.2745 H   0  0  0  0  0  0  0  0  0  0  0  0
    1.3358    0.9588   -4.8952 H   0  0  0  0  0  0  0  0  0  0  0  0
    4.1843    0.5290   -5.9047 H   0  0  0  0  0  0  0  0  0  0  0  0
    2.9039   -0.6885   -5.7562 H   0  0  0  0  0  0  0  0  0  0  0  0
    2.5545   -1.6836   -3.4640 H   0  0  0  0  0  0  0  0  0  0  0  0
    1.9587   -0.0901   -2.9094 H   0  0  0  0  0  0  0  0  0  0  0  0
    3.4830    0.0055   -1.1112 H   0  0  0  0  0  0  0  0  0  0  0  0
    4.6555   -1.0509   -1.9159 H   0  0  0  0  0  0  0  0  0  0  0  0
    1.6051   -1.1126    0.1171 H   0  0  0  0  0  0  0  0  0  0  0  0
    1.0103   -1.8135   -1.4050 H   0  0  0  0  0  0  0  0  0  0  0  0
    1.5043   -4.1166   -0.5506 H   0  0  0  0  0  0  0  0  0  0  0  0
    2.1938   -3.4204    0.9254 H   0  0  0  0  0  0  0  0  0  0  0  0
    0.0506   -3.0848    1.7850 H   0  0  0  0  0  0  0  0  0  0  0  0
   -0.3620   -3.6558   -1.8808 H   0  0  0  0  0  0  0  0  0  0  0  0
   -2.5617   -3.4668   -3.0035 H   0  0  0  0  0  0  0  0  0  0  0  0
   -4.6163   -2.8792   -1.6787 H   0  0  0  0  0  0  0  0  0  0  0  0
   -5.4520   -3.1518    3.4513 H   0  0  0  0  0  0  0  0  0  0  0  0
   -5.7806   -1.3268    4.9733 H   0  0  0  0  0  0  0  0  0  0  0  0
   -5.5345   -0.6077    3.3733 H   0  0  0  0  0  0  0  0  0  0  0  0
   -3.1593   -0.1090    3.9232 H   0  0  0  0  0  0  0  0  0  0  0  0
   -4.1785    0.5560    5.1899 H   0  0  0  0  0  0  0  0  0  0  0  0
   -2.5916   -3.0991    6.4269 H   0  0  0  0  0  0  0  0  0  0  0  0
  1  2  2  0  0  0  0
  2  3  1  0  0  0  0
  2 28  1  0  0  0  0
  3  4  1  0  0  0  0
  3 57  1  0  0  0  0
  3 58  1  0  0  0  0
  4  5  1  0  0  0  0
  4 27  1  0  0  0  0
  5  6  2  0  0  0  0
  5 59  1  0  0  0  0
  6  7  1  0  0  0  0
  6 22  1  0  0  0  0
  7  8  2  0  0  0  0
  7 20  1  0  0  0  0
  8  9  1  0  0  0  0
  8 17  1  0  0  0  0
  9 10  2  0  0  0  0
  9 15  1  0  0  0  0
 10 11  1  0  0  0  0
 10 60  1  0  0  0  0
 11 12  2  0  0  0  0
 11 61  1  0  0  0  0
 12 13  1  0  0  0  0
 12 14  1  0  0  0  0
 14 15  2  0  0  0  0
 14 62  1  0  0  0  0
 15 16  1  0  0  0  0
 17 18  2  0  0  0  0
 17 19  1  0  0  0  0
 19 20  1  0  0  0  0
 19 63  1  0  0  0  0
 20 21  2  0  0  0  0
 22 23  2  0  0  0  0
 22 27  1  0  0  0  0
 23 24  1  0  0  0  0
 23 64  1  0  0  0  0
 24 25  2  0  0  0  0
 24 65  1  0  0  0  0
 25 26  1  0  0  0  0
 25 66  1  0  0  0  0
 26 27  2  0  0  0  0
 26 67  1  0  0  0  0
 28 29  1  0  0  0  0
 28 68  1  0  0  0  0
 29 30  1  0  0  0  0
 29 69  1  0  0  0  0
 29 70  1  0  0  0  0
 30 31  1  0  0  0  0
 30 71  1  0  0  0  0
 30 72  1  0  0  0  0
 31 32  1  0  0  0  0
 32 33  1  0  0  0  0
 32 73  1  0  0  0  0
 32 74  1  0  0  0  0
 33 34  1  0  0  0  0
 33 75  1  0  0  0  0
 33 76  1  0  0  0  0
 34 35  1  0  0  0  0
 35 36  1  0  0  0  0
 35 77  1  0  0  0  0
 35 78  1  0  0  0  0
 36 37  1  0  0  0  0
 36 79  1  0  0  0  0
 36 80  1  0  0  0  0
 37 38  1  0  0  0  0
 37 81  1  0  0  0  0
 38 39  2  0  0  0  0
 38 43  1  0  0  0  0
 39 40  1  0  0  0  0
 39 82  1  0  0  0  0
 40 41  2  0  0  0  0
 40 83  1  0  0  0  0
 41 42  1  0  0  0  0
 41 84  1  0  0  0  0
 42 43  2  0  0  0  0
 42 55  1  0  0  0  0
 43 44  1  0  0  0  0
 44 45  2  0  0  0  0
 44 46  1  0  0  0  0
 46 47  1  0  0  0  0
 46 55  1  0  0  0  0
 47 48  1  0  0  0  0
 47 53  1  0  0  0  0
 47 85  1  0  0  0  0
 48 49  1  0  0  0  0
 48 86  1  0  0  0  0
 48 87  1  0  0  0  0
 49 50  1  0  0  0  0
 49 88  1  0  0  0  0
 49 89  1  0  0  0  0
 50 51  2  0  0  0  0
 50 52  1  0  0  0  0
 52 53  1  0  0  0  0
 52 90  1  0  0  0  0
 53 54  2  0  0  0  0
 55 56  2  0  0  0  0
M  END
$$$$
protac3895RUN2
  chem.cr 07102519423D
protac3895RUN2
 90 96  0  0  0  0  0  0  0  0999 V2000
    3.4388   -0.1509    5.0691 O   0  0  0  0  0  0  0  0  0  0  0  0
    3.4867    0.9045    4.4568 C   0  0  0  0  0  0  0  0  0  0  0  0
    4.7257    1.3627    3.6984 C   0  0  0  0  0  0  0  0  0  0  0  0
    4.6623    1.1279    2.2364 N   0  0  0  0  0  0  0  0  0  0  0  0
    4.1378   -0.1026    1.8036 C   0  0  0  0  0  0  0  0  0  0  0  0
    3.1739    0.0760    0.8749 C   0  0  0  0  0  0  0  0  0  0  0  0
    2.3227   -0.8709    0.3774 C   0  0  0  0  0  0  0  0  0  0  0  0
    2.5014   -2.2130    0.4327 C   0  0  0  0  0  0  0  0  0  0  0  0
    3.6381   -2.8758    0.8656 C   0  0  0  0  0  0  0  0  0  0  0  0
    3.5781   -3.7019    2.0050 C   0  0  0  0  0  0  0  0  0  0  0  0
    4.7203   -4.3974    2.4392 C   0  0  0  0  0  0  0  0  0  0  0  0
    5.9277   -4.2769    1.7332 C   0  0  0  0  0  0  0  0  0  0  0  0
    7.3526   -5.1562    2.2724 Cl  0  0  0  0  0  0  0  0  0  0  0  0
    5.9939   -3.4733    0.5871 C   0  0  0  0  0  0  0  0  0  0  0  0
    4.8551   -2.7772    0.1493 C   0  0  0  0  0  0  0  0  0  0  0  0
    4.9799   -1.8084   -1.3221 Cl  0  0  0  0  0  0  0  0  0  0  0  0
    1.4698   -2.8708   -0.0975 C   0  0  0  0  0  0  0  0  0  0  0  0
    1.2307   -4.0564   -0.2840 O   0  0  0  0  0  0  0  0  0  0  0  0
    0.5464   -1.9332   -0.5168 N   0  0  0  0  0  0  0  0  0  0  0  0
    1.1175   -0.6977   -0.2234 C   0  0  0  0  0  0  0  0  0  0  0  0
    0.3972    0.2675   -0.4317 O   0  0  0  0  0  0  0  0  0  0  0  0
    3.1907    1.4475    0.5889 C   0  0  0  0  0  0  0  0  0  0  0  0
    2.6271    2.1905   -0.4687 C   0  0  0  0  0  0  0  0  0  0  0  0
    2.9225    3.5671   -0.5798 C   0  0  0  0  0  0  0  0  0  0  0  0
    3.8229    4.1904    0.3113 C   0  0  0  0  0  0  0  0  0  0  0  0
    4.4626    3.4309    1.3057 C   0  0  0  0  0  0  0  0  0  0  0  0
    4.1341    2.0744    1.4054 C   0  0  0  0  0  0  0  0  0  0  0  0
    2.3282    1.6988    4.4769 N   0  0  0  0  0  0  0  0  0  0  0  0
    2.1927    3.0232    3.8489 C   0  0  0  0  0  0  0  0  0  0  0  0
    0.8186    3.6738    4.1085 C   0  0  0  0  0  0  0  0  0  0  0  0
   -0.2440    2.8079    3.6648 O   0  0  0  0  0  0  0  0  0  0  0  0
   -0.2254    2.4052    2.2804 C   0  0  0  0  0  0  0  0  0  0  0  0
   -1.6029    1.8126    1.9290 C   0  0  0  0  0  0  0  0  0  0  0  0
   -1.7912    0.6192    2.7062 O   0  0  0  0  0  0  0  0  0  0  0  0
   -3.0577   -0.0445    2.5590 C   0  0  0  0  0  0  0  0  0  0  0  0
   -3.0450   -0.9193    1.2828 C   0  0  0  0  0  0  0  0  0  0  0  0
   -3.4052   -0.1822    0.0566 N   0  0  0  0  0  0  0  0  0  0  0  0
   -4.6875   -0.2224   -0.4814 C   0  0  0  0  0  0  0  0  0  0  0  0
   -5.8483   -0.1378    0.3224 C   0  0  0  0  0  0  0  0  0  0  0  0
   -7.1432   -0.2224   -0.2472 C   0  0  0  0  0  0  0  0  0  0  0  0
   -7.3023   -0.4120   -1.6358 C   0  0  0  0  0  0  0  0  0  0  0  0
   -6.1466   -0.4870   -2.4238 C   0  0  0  0  0  0  0  0  0  0  0  0
   -4.8729   -0.3764   -1.8628 C   0  0  0  0  0  0  0  0  0  0  0  0
   -3.9533   -0.5053   -2.8778 C   0  0  0  0  0  0  0  0  0  0  0  0
   -2.7409   -0.6553   -2.7657 O   0  0  0  0  0  0  0  0  0  0  0  0
   -4.6420   -0.7490   -4.0802 N   0  0  0  0  0  0  0  0  0  0  0  0
   -4.1098   -0.5852   -5.4511 C   0  0  0  0  0  0  0  0  0  0  0  0
   -3.5332   -1.9026   -6.0184 C   0  0  0  0  0  0  0  0  0  0  0  0
   -2.0934   -2.1513   -5.5134 C   0  0  0  0  0  0  0  0  0  0  0  0
   -1.2008   -0.9458   -5.7112 C   0  0  0  0  0  0  0  0  0  0  0  0
   -0.0038   -1.0304   -5.9445 O   0  0  0  0  0  0  0  0  0  0  0  0
   -1.7641    0.3348   -5.7350 N   0  0  0  0  0  0  0  0  0  0  0  0
   -3.1350    0.5780   -5.5635 C   0  0  0  0  0  0  0  0  0  0  0  0
   -3.4951    1.7420   -5.6575 O   0  0  0  0  0  0  0  0  0  0  0  0
   -6.0076   -0.6968   -3.7756 C   0  0  0  0  0  0  0  0  0  0  0  0
   -6.8711   -1.0236   -4.5866 O   0  0  0  0  0  0  0  0  0  0  0  0
    4.8911    2.4285    3.8925 H   0  0  0  0  0  0  0  0  0  0  0  0
    5.5880    0.8164    4.0995 H   0  0  0  0  0  0  0  0  0  0  0  0
    4.4294   -1.0006    2.3400 H   0  0  0  0  0  0  0  0  0  0  0  0
    2.6441   -3.8025    2.5504 H   0  0  0  0  0  0  0  0  0  0  0  0
    4.6679   -5.0338    3.3183 H   0  0  0  0  0  0  0  0  0  0  0  0
    6.9207   -3.4009    0.0275 H   0  0  0  0  0  0  0  0  0  0  0  0
   -0.3242   -2.1040   -0.9937 H   0  0  0  0  0  0  0  0  0  0  0  0
    2.0265    1.7288   -1.2382 H   0  0  0  0  0  0  0  0  0  0  0  0
    2.4822    4.1421   -1.3898 H   0  0  0  0  0  0  0  0  0  0  0  0
    4.0532    5.2441    0.1959 H   0  0  0  0  0  0  0  0  0  0  0  0
    5.2018    3.8811    1.9596 H   0  0  0  0  0  0  0  0  0  0  0  0
    1.4908    1.2761    4.8663 H   0  0  0  0  0  0  0  0  0  0  0  0
    2.3101    2.9284    2.7667 H   0  0  0  0  0  0  0  0  0  0  0  0
    2.9855    3.6867    4.2158 H   0  0  0  0  0  0  0  0  0  0  0  0
    0.7723    4.6369    3.5831 H   0  0  0  0  0  0  0  0  0  0  0  0
    0.7120    3.8732    5.1822 H   0  0  0  0  0  0  0  0  0  0  0  0
    0.5474    1.6456    2.0986 H   0  0  0  0  0  0  0  0  0  0  0  0
   -0.0347    3.2659    1.6265 H   0  0  0  0  0  0  0  0  0  0  0  0
   -1.6259    1.5856    0.8570 H   0  0  0  0  0  0  0  0  0  0  0  0
   -2.3854    2.5516    2.1459 H   0  0  0  0  0  0  0  0  0  0  0  0
   -3.2069   -0.7097    3.4201 H   0  0  0  0  0  0  0  0  0  0  0  0
   -3.8888    0.6723    2.5436 H   0  0  0  0  0  0  0  0  0  0  0  0
   -2.0442   -1.3574    1.1672 H   0  0  0  0  0  0  0  0  0  0  0  0
   -3.7441   -1.7559    1.4180 H   0  0  0  0  0  0  0  0  0  0  0  0
   -2.6685   -0.0724   -0.6357 H   0  0  0  0  0  0  0  0  0  0  0  0
   -5.7549    0.0036    1.3928 H   0  0  0  0  0  0  0  0  0  0  0  0
   -8.0207   -0.1474    0.3902 H   0  0  0  0  0  0  0  0  0  0  0  0
   -8.2876   -0.5016   -2.0875 H   0  0  0  0  0  0  0  0  0  0  0  0
   -4.9626   -0.3167   -6.0888 H   0  0  0  0  0  0  0  0  0  0  0  0
   -3.5136   -1.8343   -7.1158 H   0  0  0  0  0  0  0  0  0  0  0  0
   -4.1871   -2.7480   -5.7600 H   0  0  0  0  0  0  0  0  0  0  0  0
   -2.1037   -2.4191   -4.4504 H   0  0  0  0  0  0  0  0  0  0  0  0
   -1.6557   -3.0107   -6.0375 H   0  0  0  0  0  0  0  0  0  0  0  0
   -1.1490    1.1254   -5.8513 H   0  0  0  0  0  0  0  0  0  0  0  0
  1  2  2  0  0  0  0
  2  3  1  0  0  0  0
  2 28  1  0  0  0  0
  3  4  1  0  0  0  0
  3 57  1  0  0  0  0
  3 58  1  0  0  0  0
  4  5  1  0  0  0  0
  4 27  1  0  0  0  0
  5  6  2  0  0  0  0
  5 59  1  0  0  0  0
  6  7  1  0  0  0  0
  6 22  1  0  0  0  0
  7  8  2  0  0  0  0
  7 20  1  0  0  0  0
  8  9  1  0  0  0  0
  8 17  1  0  0  0  0
  9 10  2  0  0  0  0
  9 15  1  0  0  0  0
 10 11  1  0  0  0  0
 10 60  1  0  0  0  0
 11 12  2  0  0  0  0
 11 61  1  0  0  0  0
 12 13  1  0  0  0  0
 12 14  1  0  0  0  0
 14 15  2  0  0  0  0
 14 62  1  0  0  0  0
 15 16  1  0  0  0  0
 17 18  2  0  0  0  0
 17 19  1  0  0  0  0
 19 20  1  0  0  0  0
 19 63  1  0  0  0  0
 20 21  2  0  0  0  0
 22 23  2  0  0  0  0
 22 27  1  0  0  0  0
 23 24  1  0  0  0  0
 23 64  1  0  0  0  0
 24 25  2  0  0  0  0
 24 65  1  0  0  0  0
 25 26  1  0  0  0  0
 25 66  1  0  0  0  0
 26 27  2  0  0  0  0
 26 67  1  0  0  0  0
 28 29  1  0  0  0  0
 28 68  1  0  0  0  0
 29 30  1  0  0  0  0
 29 69  1  0  0  0  0
 29 70  1  0  0  0  0
 30 31  1  0  0  0  0
 30 71  1  0  0  0  0
 30 72  1  0  0  0  0
 31 32  1  0  0  0  0
 32 33  1  0  0  0  0
 32 73  1  0  0  0  0
 32 74  1  0  0  0  0
 33 34  1  0  0  0  0
 33 75  1  0  0  0  0
 33 76  1  0  0  0  0
 34 35  1  0  0  0  0
 35 36  1  0  0  0  0
 35 77  1  0  0  0  0
 35 78  1  0  0  0  0
 36 37  1  0  0  0  0
 36 79  1  0  0  0  0
 36 80  1  0  0  0  0
 37 38  1  0  0  0  0
 37 81  1  0  0  0  0
 38 39  2  0  0  0  0
 38 43  1  0  0  0  0
 39 40  1  0  0  0  0
 39 82  1  0  0  0  0
 40 41  2  0  0  0  0
 40 83  1  0  0  0  0
 41 42  1  0  0  0  0
 41 84  1  0  0  0  0
 42 43  2  0  0  0  0
 42 55  1  0  0  0  0
 43 44  1  0  0  0  0
 44 45  2  0  0  0  0
 44 46  1  0  0  0  0
 46 47  1  0  0  0  0
 46 55  1  0  0  0  0
 47 48  1  0  0  0  0
 47 53  1  0  0  0  0
 47 85  1  0  0  0  0
 48 49  1  0  0  0  0
 48 86  1  0  0  0  0
 48 87  1  0  0  0  0
 49 50  1  0  0  0  0
 49 88  1  0  0  0  0
 49 89  1  0  0  0  0
 50 51  2  0  0  0  0
 50 52  1  0  0  0  0
 52 53  1  0  0  0  0
 52 90  1  0  0  0  0
 53 54  2  0  0  0  0
 55 56  2  0  0  0  0
M  END
$$$$
protac3895RUN2
  chem.cr 07102519423D
protac3895RUN2
 90 96  0  0  0  0  0  0  0  0999 V2000
   -1.4889   -5.6056    2.9552 O   0  0  0  0  0  0  0  0  0  0  0  0
   -1.0787   -4.5932    3.5040 C   0  0  0  0  0  0  0  0  0  0  0  0
    0.1012   -4.6066    4.4575 C   0  0  0  0  0  0  0  0  0  0  0  0
    0.5150   -3.2934    4.9986 N   0  0  0  0  0  0  0  0  0  0  0  0
    0.6984   -3.0696    6.3699 C   0  0  0  0  0  0  0  0  0  0  0  0
    1.4462   -1.9617    6.5758 C   0  0  0  0  0  0  0  0  0  0  0  0
    1.7097   -1.3351    7.7657 C   0  0  0  0  0  0  0  0  0  0  0  0
    1.4897   -1.8331    9.0063 C   0  0  0  0  0  0  0  0  0  0  0  0
    1.0348   -3.0988    9.3216 C   0  0  0  0  0  0  0  0  0  0  0  0
    1.9505   -4.1672    9.3313 C   0  0  0  0  0  0  0  0  0  0  0  0
    1.5258   -5.4636    9.6701 C   0  0  0  0  0  0  0  0  0  0  0  0
    0.1829   -5.6942   10.0059 C   0  0  0  0  0  0  0  0  0  0  0  0
   -0.3457   -7.3152   10.4399 Cl  0  0  0  0  0  0  0  0  0  0  0  0
   -0.7356   -4.6321   10.0073 C   0  0  0  0  0  0  0  0  0  0  0  0
   -0.3130   -3.3351    9.6671 C   0  0  0  0  0  0  0  0  0  0  0  0
   -1.4921   -2.0253    9.6536 Cl  0  0  0  0  0  0  0  0  0  0  0  0
    1.8155   -0.9581    9.9595 C   0  0  0  0  0  0  0  0  0  0  0  0
    1.7796   -0.9935   11.1815 O   0  0  0  0  0  0  0  0  0  0  0  0
    2.2956    0.1846    9.3479 N   0  0  0  0  0  0  0  0  0  0  0  0
    2.1727   -0.0766    7.9847 C   0  0  0  0  0  0  0  0  0  0  0  0
    2.3951    0.8877    7.2644 O   0  0  0  0  0  0  0  0  0  0  0  0
    1.8618   -1.5531    5.2938 C   0  0  0  0  0  0  0  0  0  0  0  0
    2.8980   -0.6892    4.8742 C   0  0  0  0  0  0  0  0  0  0  0  0
    3.1702   -0.5445    3.4960 C   0  0  0  0  0  0  0  0  0  0  0  0
    2.4787   -1.3118    2.5363 C   0  0  0  0  0  0  0  0  0  0  0  0
    1.5374   -2.2671    2.9543 C   0  0  0  0  0  0  0  0  0  0  0  0
    1.2618   -2.3645    4.3269 C   0  0  0  0  0  0  0  0  0  0  0  0
   -1.5187   -3.3511    3.0192 N   0  0  0  0  0  0  0  0  0  0  0  0
   -1.9884   -3.1842    1.6349 C   0  0  0  0  0  0  0  0  0  0  0  0
   -2.3110   -1.7173    1.3004 C   0  0  0  0  0  0  0  0  0  0  0  0
   -2.3766   -1.6200   -0.1275 O   0  0  0  0  0  0  0  0  0  0  0  0
   -2.7992   -0.3451   -0.6319 C   0  0  0  0  0  0  0  0  0  0  0  0
   -2.4789   -0.3194   -2.1342 C   0  0  0  0  0  0  0  0  0  0  0  0
   -2.9245    0.9426   -2.6482 O   0  0  0  0  0  0  0  0  0  0  0  0
   -2.4149    1.2830   -3.9423 C   0  0  0  0  0  0  0  0  0  0  0  0
   -3.0320    2.6367   -4.3338 C   0  0  0  0  0  0  0  0  0  0  0  0
   -2.2902    3.2421   -5.4515 N   0  0  0  0  0  0  0  0  0  0  0  0
   -2.3970    2.9056   -6.7961 C   0  0  0  0  0  0  0  0  0  0  0  0
   -3.3689    2.0095   -7.3025 C   0  0  0  0  0  0  0  0  0  0  0  0
   -3.4209    1.6942   -8.6829 C   0  0  0  0  0  0  0  0  0  0  0  0
   -2.4993    2.2637   -9.5859 C   0  0  0  0  0  0  0  0  0  0  0  0
   -1.5465    3.1532   -9.0752 C   0  0  0  0  0  0  0  0  0  0  0  0
   -1.5003    3.4649   -7.7171 C   0  0  0  0  0  0  0  0  0  0  0  0
   -0.4447    4.3251   -7.5178 C   0  0  0  0  0  0  0  0  0  0  0  0
    0.0101    4.7087   -6.4468 O   0  0  0  0  0  0  0  0  0  0  0  0
    0.2061    4.5228   -8.7475 N   0  0  0  0  0  0  0  0  0  0  0  0
    1.5694    5.0591   -8.9731 C   0  0  0  0  0  0  0  0  0  0  0  0
    2.6324    3.9389   -8.8924 C   0  0  0  0  0  0  0  0  0  0  0  0
    2.9110    3.5669   -7.4191 C   0  0  0  0  0  0  0  0  0  0  0  0
    3.2361    4.7817   -6.5764 C   0  0  0  0  0  0  0  0  0  0  0  0
    3.9432    4.7360   -5.5819 O   0  0  0  0  0  0  0  0  0  0  0  0
    2.7850    6.0443   -6.9817 N   0  0  0  0  0  0  0  0  0  0  0  0
    1.9211    6.2388   -8.0723 C   0  0  0  0  0  0  0  0  0  0  0  0
    1.6790    7.4009   -8.3685 O   0  0  0  0  0  0  0  0  0  0  0  0
   -0.5259    3.8196   -9.7117 C   0  0  0  0  0  0  0  0  0  0  0  0
   -0.0913    3.6197  -10.8414 O   0  0  0  0  0  0  0  0  0  0  0  0
   -0.1460   -5.2772    5.2871 H   0  0  0  0  0  0  0  0  0  0  0  0
    0.9582   -5.0461    3.9329 H   0  0  0  0  0  0  0  0  0  0  0  0
    0.1607   -3.6974    7.0741 H   0  0  0  0  0  0  0  0  0  0  0  0
    2.9935   -3.9864    9.0866 H   0  0  0  0  0  0  0  0  0  0  0  0
    2.2392   -6.2833    9.6868 H   0  0  0  0  0  0  0  0  0  0  0  0
   -1.7723   -4.8122   10.2783 H   0  0  0  0  0  0  0  0  0  0  0  0
    2.2155    1.1078    9.7428 H   0  0  0  0  0  0  0  0  0  0  0  0
    3.5400   -0.1742    5.5738 H   0  0  0  0  0  0  0  0  0  0  0  0
    3.9525    0.1387    3.1742 H   0  0  0  0  0  0  0  0  0  0  0  0
    2.7167   -1.2046    1.4812 H   0  0  0  0  0  0  0  0  0  0  0  0
    1.0655   -2.9257    2.2313 H   0  0  0  0  0  0  0  0  0  0  0  0
   -1.2134   -2.5277    3.5272 H   0  0  0  0  0  0  0  0  0  0  0  0
   -2.8833   -3.8026    1.4771 H   0  0  0  0  0  0  0  0  0  0  0  0
   -1.2086   -3.5520    0.9532 H   0  0  0  0  0  0  0  0  0  0  0  0
   -1.5197   -1.0601    1.6881 H   0  0  0  0  0  0  0  0  0  0  0  0
   -3.2636   -1.4312    1.7663 H   0  0  0  0  0  0  0  0  0  0  0  0
   -2.2565    0.4736   -0.1425 H   0  0  0  0  0  0  0  0  0  0  0  0
   -3.8765   -0.1993   -0.4733 H   0  0  0  0  0  0  0  0  0  0  0  0
   -2.9908   -1.1485   -2.6394 H   0  0  0  0  0  0  0  0  0  0  0  0
   -1.3965   -0.4394   -2.2691 H   0  0  0  0  0  0  0  0  0  0  0  0
   -1.3206    1.3763   -3.9011 H   0  0  0  0  0  0  0  0  0  0  0  0
   -2.6731    0.5210   -4.6890 H   0  0  0  0  0  0  0  0  0  0  0  0
   -4.0922    2.5073   -4.5866 H   0  0  0  0  0  0  0  0  0  0  0  0
   -2.9837    3.3082   -3.4666 H   0  0  0  0  0  0  0  0  0  0  0  0
   -1.5469    3.8981   -5.2280 H   0  0  0  0  0  0  0  0  0  0  0  0
   -4.0876    1.5488   -6.6340 H   0  0  0  0  0  0  0  0  0  0  0  0
   -4.1726    1.0003   -9.0519 H   0  0  0  0  0  0  0  0  0  0  0  0
   -2.5187    2.0208  -10.6462 H   0  0  0  0  0  0  0  0  0  0  0  0
    1.5827    5.4514   -9.9986 H   0  0  0  0  0  0  0  0  0  0  0  0
    3.5623    4.2948   -9.3564 H   0  0  0  0  0  0  0  0  0  0  0  0
    2.3057    3.0594   -9.4624 H   0  0  0  0  0  0  0  0  0  0  0  0
    2.0393    3.0633   -6.9834 H   0  0  0  0  0  0  0  0  0  0  0  0
    3.7405    2.8510   -7.3644 H   0  0  0  0  0  0  0  0  0  0  0  0
    3.0213    6.8420   -6.4112 H   0  0  0  0  0  0  0  0  0  0  0  0
  1  2  2  0  0  0  0
  2  3  1  0  0  0  0
  2 28  1  0  0  0  0
  3  4  1  0  0  0  0
  3 57  1  0  0  0  0
  3 58  1  0  0  0  0
  4  5  1  0  0  0  0
  4 27  1  0  0  0  0
  5  6  2  0  0  0  0
  5 59  1  0  0  0  0
  6  7  1  0  0  0  0
  6 22  1  0  0  0  0
  7  8  2  0  0  0  0
  7 20  1  0  0  0  0
  8  9  1  0  0  0  0
  8 17  1  0  0  0  0
  9 10  2  0  0  0  0
  9 15  1  0  0  0  0
 10 11  1  0  0  0  0
 10 60  1  0  0  0  0
 11 12  2  0  0  0  0
 11 61  1  0  0  0  0
 12 13  1  0  0  0  0
 12 14  1  0  0  0  0
 14 15  2  0  0  0  0
 14 62  1  0  0  0  0
 15 16  1  0  0  0  0
 17 18  2  0  0  0  0
 17 19  1  0  0  0  0
 19 20  1  0  0  0  0
 19 63  1  0  0  0  0
 20 21  2  0  0  0  0
 22 23  2  0  0  0  0
 22 27  1  0  0  0  0
 23 24  1  0  0  0  0
 23 64  1  0  0  0  0
 24 25  2  0  0  0  0
 24 65  1  0  0  0  0
 25 26  1  0  0  0  0
 25 66  1  0  0  0  0
 26 27  2  0  0  0  0
 26 67  1  0  0  0  0
 28 29  1  0  0  0  0
 28 68  1  0  0  0  0
 29 30  1  0  0  0  0
 29 69  1  0  0  0  0
 29 70  1  0  0  0  0
 30 31  1  0  0  0  0
 30 71  1  0  0  0  0
 30 72  1  0  0  0  0
 31 32  1  0  0  0  0
 32 33  1  0  0  0  0
 32 73  1  0  0  0  0
 32 74  1  0  0  0  0
 33 34  1  0  0  0  0
 33 75  1  0  0  0  0
 33 76  1  0  0  0  0
 34 35  1  0  0  0  0
 35 36  1  0  0  0  0
 35 77  1  0  0  0  0
 35 78  1  0  0  0  0
 36 37  1  0  0  0  0
 36 79  1  0  0  0  0
 36 80  1  0  0  0  0
 37 38  1  0  0  0  0
 37 81  1  0  0  0  0
 38 39  2  0  0  0  0
 38 43  1  0  0  0  0
 39 40  1  0  0  0  0
 39 82  1  0  0  0  0
 40 41  2  0  0  0  0
 40 83  1  0  0  0  0
 41 42  1  0  0  0  0
 41 84  1  0  0  0  0
 42 43  2  0  0  0  0
 42 55  1  0  0  0  0
 43 44  1  0  0  0  0
 44 45  2  0  0  0  0
 44 46  1  0  0  0  0
 46 47  1  0  0  0  0
 46 55  1  0  0  0  0
 47 48  1  0  0  0  0
 47 53  1  0  0  0  0
 47 85  1  0  0  0  0
 48 49  1  0  0  0  0
 48 86  1  0  0  0  0
 48 87  1  0  0  0  0
 49 50  1  0  0  0  0
 49 88  1  0  0  0  0
 49 89  1  0  0  0  0
 50 51  2  0  0  0  0
 50 52  1  0  0  0  0
 52 53  1  0  0  0  0
 52 90  1  0  0  0  0
 53 54  2  0  0  0  0
 55 56  2  0  0  0  0
M  END
$$$$
protac3895RUN2
  chem.cr 07102519423D
protac3895RUN2
 90 96  0  0  0  0  0  0  0  0999 V2000
   -0.6983   -2.7031   -1.2320 O   0  0  0  0  0  0  0  0  0  0  0  0
   -0.9856   -2.1140   -2.2659 C   0  0  0  0  0  0  0  0  0  0  0  0
   -0.1237   -2.1580   -3.5080 C   0  0  0  0  0  0  0  0  0  0  0  0
   -0.3782   -3.3475   -4.3431 N   0  0  0  0  0  0  0  0  0  0  0  0
   -0.9793   -3.3010   -5.6064 C   0  0  0  0  0  0  0  0  0  0  0  0
   -0.6896   -4.4184   -6.3164 C   0  0  0  0  0  0  0  0  0  0  0  0
   -0.9852   -4.6765   -7.6316 C   0  0  0  0  0  0  0  0  0  0  0  0
   -1.8201   -3.9623   -8.4271 C   0  0  0  0  0  0  0  0  0  0  0  0
   -2.5860   -2.8679   -8.0639 C   0  0  0  0  0  0  0  0  0  0  0  0
   -2.2670   -1.5987   -8.5846 C   0  0  0  0  0  0  0  0  0  0  0  0
   -3.0386   -0.4732   -8.2443 C   0  0  0  0  0  0  0  0  0  0  0  0
   -4.1392   -0.6133   -7.3838 C   0  0  0  0  0  0  0  0  0  0  0  0
   -5.1204    0.7864   -6.9753 Cl  0  0  0  0  0  0  0  0  0  0  0  0
   -4.4753   -1.8771   -6.8732 C   0  0  0  0  0  0  0  0  0  0  0  0
   -3.7102   -3.0040   -7.2182 C   0  0  0  0  0  0  0  0  0  0  0  0
   -4.1921   -4.5804   -6.5919 Cl  0  0  0  0  0  0  0  0  0  0  0  0
   -1.8517   -4.4397   -9.6734 C   0  0  0  0  0  0  0  0  0  0  0  0
   -2.4352   -4.0950  -10.6902 O   0  0  0  0  0  0  0  0  0  0  0  0
   -1.0291   -5.5469   -9.7282 N   0  0  0  0  0  0  0  0  0  0  0  0
   -0.4761   -5.6358   -8.4531 C   0  0  0  0  0  0  0  0  0  0  0  0
    0.4152   -6.4638   -8.3519 O   0  0  0  0  0  0  0  0  0  0  0  0
    0.0353   -5.2375   -5.4277 C   0  0  0  0  0  0  0  0  0  0  0  0
    0.3422   -6.6165   -5.4493 C   0  0  0  0  0  0  0  0  0  0  0  0
    1.0189   -7.1969   -4.3531 C   0  0  0  0  0  0  0  0  0  0  0  0
    1.3253   -6.4392   -3.2035 C   0  0  0  0  0  0  0  0  0  0  0  0
    0.9138   -5.0991   -3.1233 C   0  0  0  0  0  0  0  0  0  0  0  0
    0.2678   -4.5441   -4.2361 C   0  0  0  0  0  0  0  0  0  0  0  0
   -2.0029   -1.1445   -2.2397 N   0  0  0  0  0  0  0  0  0  0  0  0
   -2.8445   -0.8825   -1.0583 C   0  0  0  0  0  0  0  0  0  0  0  0
   -2.9606    0.6232   -0.7291 C   0  0  0  0  0  0  0  0  0  0  0  0
   -1.6586    1.2269   -0.6140 O   0  0  0  0  0  0  0  0  0  0  0  0
   -0.7768    0.6802    0.3845 C   0  0  0  0  0  0  0  0  0  0  0  0
    0.3300    1.7119    0.6438 C   0  0  0  0  0  0  0  0  0  0  0  0
   -0.2127    2.7028    1.5252 O   0  0  0  0  0  0  0  0  0  0  0  0
    0.5646    3.8971    1.6442 C   0  0  0  0  0  0  0  0  0  0  0  0
   -0.0550    4.7450    2.7727 C   0  0  0  0  0  0  0  0  0  0  0  0
    0.5478    4.4096    4.0746 N   0  0  0  0  0  0  0  0  0  0  0  0
    0.1382    3.4154    4.9571 C   0  0  0  0  0  0  0  0  0  0  0  0
   -1.0093    2.6093    4.7548 C   0  0  0  0  0  0  0  0  0  0  0  0
   -1.3920    1.6311    5.7073 C   0  0  0  0  0  0  0  0  0  0  0  0
   -0.6241    1.4235    6.8718 C   0  0  0  0  0  0  0  0  0  0  0  0
    0.5191    2.2114    7.0519 C   0  0  0  0  0  0  0  0  0  0  0  0
    0.8836    3.1872    6.1228 C   0  0  0  0  0  0  0  0  0  0  0  0
    2.0232    3.8118    6.5809 C   0  0  0  0  0  0  0  0  0  0  0  0
    2.4520    4.9113    6.2485 O   0  0  0  0  0  0  0  0  0  0  0  0
    2.3626    3.2325    7.8112 N   0  0  0  0  0  0  0  0  0  0  0  0
    3.4959    3.6071    8.6790 C   0  0  0  0  0  0  0  0  0  0  0  0
    3.1305    4.8636    9.4953 C   0  0  0  0  0  0  0  0  0  0  0  0
    4.3316    5.2863   10.3675 C   0  0  0  0  0  0  0  0  0  0  0  0
    5.5877    5.4591    9.5441 C   0  0  0  0  0  0  0  0  0  0  0  0
    6.5303    6.1487    9.9010 O   0  0  0  0  0  0  0  0  0  0  0  0
    5.7962    4.6209    8.4403 N   0  0  0  0  0  0  0  0  0  0  0  0
    4.8017    3.7869    7.9076 C   0  0  0  0  0  0  0  0  0  0  0  0
    5.1676    3.0380    7.0116 O   0  0  0  0  0  0  0  0  0  0  0  0
    1.4351    2.2222    8.0766 C   0  0  0  0  0  0  0  0  0  0  0  0
    1.3342    1.7121    9.1876 O   0  0  0  0  0  0  0  0  0  0  0  0
   -0.2715   -1.2536   -4.1073 H   0  0  0  0  0  0  0  0  0  0  0  0
    0.9282   -2.1767   -3.1965 H   0  0  0  0  0  0  0  0  0  0  0  0
   -1.4911   -2.3917   -5.9013 H   0  0  0  0  0  0  0  0  0  0  0  0
   -1.4273   -1.4931   -9.2678 H   0  0  0  0  0  0  0  0  0  0  0  0
   -2.7921    0.5018   -8.6585 H   0  0  0  0  0  0  0  0  0  0  0  0
   -5.3410   -1.9883   -6.2263 H   0  0  0  0  0  0  0  0  0  0  0  0
   -0.5587   -5.8600  -10.5626 H   0  0  0  0  0  0  0  0  0  0  0  0
    0.0200   -7.2702   -6.2470 H   0  0  0  0  0  0  0  0  0  0  0  0
    1.2726   -8.2532   -4.3791 H   0  0  0  0  0  0  0  0  0  0  0  0
    1.8233   -6.9076   -2.3592 H   0  0  0  0  0  0  0  0  0  0  0  0
    1.0546   -4.5298   -2.2093 H   0  0  0  0  0  0  0  0  0  0  0  0
   -2.1051   -0.5382   -3.0427 H   0  0  0  0  0  0  0  0  0  0  0  0
   -2.4489   -1.4155   -0.1835 H   0  0  0  0  0  0  0  0  0  0  0  0
   -3.8470   -1.2848   -1.2459 H   0  0  0  0  0  0  0  0  0  0  0  0
   -3.5227    0.7519    0.2046 H   0  0  0  0  0  0  0  0  0  0  0  0
   -3.5258    1.1221   -1.5264 H   0  0  0  0  0  0  0  0  0  0  0  0
   -0.3229   -0.2510    0.0255 H   0  0  0  0  0  0  0  0  0  0  0  0
   -1.3080    0.4757    1.3226 H   0  0  0  0  0  0  0  0  0  0  0  0
    0.6499    2.1502   -0.3111 H   0  0  0  0  0  0  0  0  0  0  0  0
    1.1910    1.2156    1.1114 H   0  0  0  0  0  0  0  0  0  0  0  0
    1.6173    3.6716    1.8671 H   0  0  0  0  0  0  0  0  0  0  0  0
    0.5254    4.4586    0.7016 H   0  0  0  0  0  0  0  0  0  0  0  0
    0.1369    5.8041    2.5605 H   0  0  0  0  0  0  0  0  0  0  0  0
   -1.1428    4.6099    2.7874 H   0  0  0  0  0  0  0  0  0  0  0  0
    1.3673    4.9329    4.3676 H   0  0  0  0  0  0  0  0  0  0  0  0
   -1.6153    2.7386    3.8648 H   0  0  0  0  0  0  0  0  0  0  0  0
   -2.2860    1.0344    5.5403 H   0  0  0  0  0  0  0  0  0  0  0  0
   -0.9017    0.6730    7.6073 H   0  0  0  0  0  0  0  0  0  0  0  0
    3.6683    2.7794    9.3798 H   0  0  0  0  0  0  0  0  0  0  0  0
    2.2459    4.6640   10.1144 H   0  0  0  0  0  0  0  0  0  0  0  0
    2.8670    5.6783    8.8070 H   0  0  0  0  0  0  0  0  0  0  0  0
    4.1071    6.2273   10.8862 H   0  0  0  0  0  0  0  0  0  0  0  0
    4.5192    4.5374   11.1465 H   0  0  0  0  0  0  0  0  0  0  0  0
    6.6844    4.6641    7.9645 H   0  0  0  0  0  0  0  0  0  0  0  0
  1  2  2  0  0  0  0
  2  3  1  0  0  0  0
  2 28  1  0  0  0  0
  3  4  1  0  0  0  0
  3 57  1  0  0  0  0
  3 58  1  0  0  0  0
  4  5  1  0  0  0  0
  4 27  1  0  0  0  0
  5  6  2  0  0  0  0
  5 59  1  0  0  0  0
  6  7  1  0  0  0  0
  6 22  1  0  0  0  0
  7  8  2  0  0  0  0
  7 20  1  0  0  0  0
  8  9  1  0  0  0  0
  8 17  1  0  0  0  0
  9 10  2  0  0  0  0
  9 15  1  0  0  0  0
 10 11  1  0  0  0  0
 10 60  1  0  0  0  0
 11 12  2  0  0  0  0
 11 61  1  0  0  0  0
 12 13  1  0  0  0  0
 12 14  1  0  0  0  0
 14 15  2  0  0  0  0
 14 62  1  0  0  0  0
 15 16  1  0  0  0  0
 17 18  2  0  0  0  0
 17 19  1  0  0  0  0
 19 20  1  0  0  0  0
 19 63  1  0  0  0  0
 20 21  2  0  0  0  0
 22 23  2  0  0  0  0
 22 27  1  0  0  0  0
 23 24  1  0  0  0  0
 23 64  1  0  0  0  0
 24 25  2  0  0  0  0
 24 65  1  0  0  0  0
 25 26  1  0  0  0  0
 25 66  1  0  0  0  0
 26 27  2  0  0  0  0
 26 67  1  0  0  0  0
 28 29  1  0  0  0  0
 28 68  1  0  0  0  0
 29 30  1  0  0  0  0
 29 69  1  0  0  0  0
 29 70  1  0  0  0  0
 30 31  1  0  0  0  0
 30 71  1  0  0  0  0
 30 72  1  0  0  0  0
 31 32  1  0  0  0  0
 32 33  1  0  0  0  0
 32 73  1  0  0  0  0
 32 74  1  0  0  0  0
 33 34  1  0  0  0  0
 33 75  1  0  0  0  0
 33 76  1  0  0  0  0
 34 35  1  0  0  0  0
 35 36  1  0  0  0  0
 35 77  1  0  0  0  0
 35 78  1  0  0  0  0
 36 37  1  0  0  0  0
 36 79  1  0  0  0  0
 36 80  1  0  0  0  0
 37 38  1  0  0  0  0
 37 81  1  0  0  0  0
 38 39  2  0  0  0  0
 38 43  1  0  0  0  0
 39 40  1  0  0  0  0
 39 82  1  0  0  0  0
 40 41  2  0  0  0  0
 40 83  1  0  0  0  0
 41 42  1  0  0  0  0
 41 84  1  0  0  0  0
 42 43  2  0  0  0  0
 42 55  1  0  0  0  0
 43 44  1  0  0  0  0
 44 45  2  0  0  0  0
 44 46  1  0  0  0  0
 46 47  1  0  0  0  0
 46 55  1  0  0  0  0
 47 48  1  0  0  0  0
 47 53  1  0  0  0  0
 47 85  1  0  0  0  0
 48 49  1  0  0  0  0
 48 86  1  0  0  0  0
 48 87  1  0  0  0  0
 49 50  1  0  0  0  0
 49 88  1  0  0  0  0
 49 89  1  0  0  0  0
 50 51  2  0  0  0  0
 50 52  1  0  0  0  0
 52 53  1  0  0  0  0
 52 90  1  0  0  0  0
 53 54  2  0  0  0  0
 55 56  2  0  0  0  0
M  END
$$$$
protac3895RUN2
  chem.cr 07102519423D
protac3895RUN2
 90 96  0  0  0  0  0  0  0  0999 V2000
    0.8697   -2.2303    0.5506 O   0  0  0  0  0  0  0  0  0  0  0  0
    0.2501   -2.4237   -0.4860 C   0  0  0  0  0  0  0  0  0  0  0  0
    0.8427   -2.2467   -1.8604 C   0  0  0  0  0  0  0  0  0  0  0  0
    0.3453   -3.2250   -2.8451 N   0  0  0  0  0  0  0  0  0  0  0  0
   -0.5325   -2.9178   -3.8823 C   0  0  0  0  0  0  0  0  0  0  0  0
   -0.6727   -3.9712   -4.7208 C   0  0  0  0  0  0  0  0  0  0  0  0
   -1.5664   -4.0920   -5.7590 C   0  0  0  0  0  0  0  0  0  0  0  0
   -2.3463   -3.0976   -6.2613 C   0  0  0  0  0  0  0  0  0  0  0  0
   -2.3633   -1.7754   -5.8620 C   0  0  0  0  0  0  0  0  0  0  0  0
   -1.3465   -0.9050   -6.2967 C   0  0  0  0  0  0  0  0  0  0  0  0
   -1.3358    0.4382   -5.8819 C   0  0  0  0  0  0  0  0  0  0  0  0
   -2.3494    0.9180   -5.0358 C   0  0  0  0  0  0  0  0  0  0  0  0
   -2.3406    2.6017   -4.5228 Cl  0  0  0  0  0  0  0  0  0  0  0  0
   -3.3749    0.0605   -4.6080 C   0  0  0  0  0  0  0  0  0  0  0  0
   -3.3852   -1.2842   -5.0173 C   0  0  0  0  0  0  0  0  0  0  0  0
   -4.6784   -2.3376   -4.4440 Cl  0  0  0  0  0  0  0  0  0  0  0  0
   -3.1282   -3.5224   -7.2532 C   0  0  0  0  0  0  0  0  0  0  0  0
   -3.9386   -2.9684   -7.9859 O   0  0  0  0  0  0  0  0  0  0  0  0
   -2.9083   -4.8743   -7.4109 N   0  0  0  0  0  0  0  0  0  0  0  0
   -1.9214   -5.1908   -6.4803 C   0  0  0  0  0  0  0  0  0  0  0  0
   -1.6468   -6.3800   -6.4341 O   0  0  0  0  0  0  0  0  0  0  0  0
    0.2439   -4.9380   -4.2436 C   0  0  0  0  0  0  0  0  0  0  0  0
    0.7759   -6.1201   -4.8068 C   0  0  0  0  0  0  0  0  0  0  0  0
    1.7277   -6.8725   -4.0826 C   0  0  0  0  0  0  0  0  0  0  0  0
    2.2067   -6.4302   -2.8327 C   0  0  0  0  0  0  0  0  0  0  0  0
    1.7768   -5.1955   -2.3189 C   0  0  0  0  0  0  0  0  0  0  0  0
    0.8246   -4.4812   -3.0540 C   0  0  0  0  0  0  0  0  0  0  0  0
   -1.1283   -2.6743   -0.4333 N   0  0  0  0  0  0  0  0  0  0  0  0
   -1.9980   -2.1744    0.6414 C   0  0  0  0  0  0  0  0  0  0  0  0
   -2.7470   -0.8906    0.2146 C   0  0  0  0  0  0  0  0  0  0  0  0
   -1.8165    0.1804   -0.0295 O   0  0  0  0  0  0  0  0  0  0  0  0
   -1.1181    0.6933    1.1210 C   0  0  0  0  0  0  0  0  0  0  0  0
   -0.5107    2.0532    0.7419 C   0  0  0  0  0  0  0  0  0  0  0  0
   -1.6010    2.9717    0.5545 O   0  0  0  0  0  0  0  0  0  0  0  0
   -1.2308    4.3394    0.3324 C   0  0  0  0  0  0  0  0  0  0  0  0
   -1.4644    5.1425    1.6320 C   0  0  0  0  0  0  0  0  0  0  0  0
   -0.5831    4.7028    2.7259 N   0  0  0  0  0  0  0  0  0  0  0  0
   -0.8782    3.7503    3.6966 C   0  0  0  0  0  0  0  0  0  0  0  0
   -2.1410    3.1215    3.8292 C   0  0  0  0  0  0  0  0  0  0  0  0
   -2.3683    2.1432    4.8295 C   0  0  0  0  0  0  0  0  0  0  0  0
   -1.3359    1.7670    5.7138 C   0  0  0  0  0  0  0  0  0  0  0  0
   -0.0953    2.3987    5.5760 C   0  0  0  0  0  0  0  0  0  0  0  0
    0.1240    3.3635    4.5944 C   0  0  0  0  0  0  0  0  0  0  0  0
    1.4308    3.7835    4.6997 C   0  0  0  0  0  0  0  0  0  0  0  0
    1.9946    4.6789    4.0815 O   0  0  0  0  0  0  0  0  0  0  0  0
    2.0341    3.1085    5.7693 N   0  0  0  0  0  0  0  0  0  0  0  0
    3.4886    2.9328    5.9565 C   0  0  0  0  0  0  0  0  0  0  0  0
    4.1402    4.2383    6.4575 C   0  0  0  0  0  0  0  0  0  0  0  0
    5.6607    4.0244    6.6117 C   0  0  0  0  0  0  0  0  0  0  0  0
    6.2896    3.4865    5.3457 C   0  0  0  0  0  0  0  0  0  0  0  0
    7.4838    3.5799    5.1086 O   0  0  0  0  0  0  0  0  0  0  0  0
    5.5606    2.5824    4.5645 N   0  0  0  0  0  0  0  0  0  0  0  0
    4.1775    2.3932    4.7071 C   0  0  0  0  0  0  0  0  0  0  0  0
    3.6821    1.5468    3.9766 O   0  0  0  0  0  0  0  0  0  0  0  0
    1.0725    2.2344    6.2871 C   0  0  0  0  0  0  0  0  0  0  0  0
    1.2687    1.5467    7.2830 O   0  0  0  0  0  0  0  0  0  0  0  0
    0.6204   -1.2323   -2.2104 H   0  0  0  0  0  0  0  0  0  0  0  0
    1.9322   -2.3391   -1.7899 H   0  0  0  0  0  0  0  0  0  0  0  0
   -1.0534   -1.9678   -3.8360 H   0  0  0  0  0  0  0  0  0  0  0  0
   -0.5633   -1.2781   -6.9527 H   0  0  0  0  0  0  0  0  0  0  0  0
   -0.5486    1.1067   -6.2196 H   0  0  0  0  0  0  0  0  0  0  0  0
   -4.1613    0.4387   -3.9605 H   0  0  0  0  0  0  0  0  0  0  0  0
   -3.1393   -5.4181   -8.2259 H   0  0  0  0  0  0  0  0  0  0  0  0
    0.5316   -6.4527   -5.8033 H   0  0  0  0  0  0  0  0  0  0  0  0
    2.1116   -7.7967   -4.5065 H   0  0  0  0  0  0  0  0  0  0  0  0
    2.9444   -7.0161   -2.2923 H   0  0  0  0  0  0  0  0  0  0  0  0
    2.1804   -4.8048   -1.3897 H   0  0  0  0  0  0  0  0  0  0  0  0
   -1.5522   -3.0788   -1.2590 H   0  0  0  0  0  0  0  0  0  0  0  0
   -1.4060   -1.9908    1.5473 H   0  0  0  0  0  0  0  0  0  0  0  0
   -2.7312   -2.9531    0.8886 H   0  0  0  0  0  0  0  0  0  0  0  0
   -3.4626   -0.6019    0.9964 H   0  0  0  0  0  0  0  0  0  0  0  0
   -3.3158   -1.0992   -0.7011 H   0  0  0  0  0  0  0  0  0  0  0  0
   -0.3146    0.0114    1.4294 H   0  0  0  0  0  0  0  0  0  0  0  0
   -1.7979    0.8405    1.9700 H   0  0  0  0  0  0  0  0  0  0  0  0
    0.0850    1.9619   -0.1754 H   0  0  0  0  0  0  0  0  0  0  0  0
    0.1530    2.3804    1.5519 H   0  0  0  0  0  0  0  0  0  0  0  0
   -0.1836    4.4291    0.0128 H   0  0  0  0  0  0  0  0  0  0  0  0
   -1.8595    4.7607   -0.4623 H   0  0  0  0  0  0  0  0  0  0  0  0
   -1.2703    6.2027    1.4235 H   0  0  0  0  0  0  0  0  0  0  0  0
   -2.5174    5.0666    1.9227 H   0  0  0  0  0  0  0  0  0  0  0  0
    0.3696    5.0521    2.7400 H   0  0  0  0  0  0  0  0  0  0  0  0
   -2.9512    3.3703    3.1533 H   0  0  0  0  0  0  0  0  0  0  0  0
   -3.3451    1.6720    4.9105 H   0  0  0  0  0  0  0  0  0  0  0  0
   -1.4924    1.0076    6.4758 H   0  0  0  0  0  0  0  0  0  0  0  0
    3.6311    2.1717    6.7346 H   0  0  0  0  0  0  0  0  0  0  0  0
    3.6898    4.5495    7.4114 H   0  0  0  0  0  0  0  0  0  0  0  0
    3.9557    5.0454    5.7355 H   0  0  0  0  0  0  0  0  0  0  0  0
    6.1483    4.9698    6.8814 H   0  0  0  0  0  0  0  0  0  0  0  0
    5.8590    3.3205    7.4300 H   0  0  0  0  0  0  0  0  0  0  0  0
    6.0328    2.1070    3.8101 H   0  0  0  0  0  0  0  0  0  0  0  0
  1  2  2  0  0  0  0
  2  3  1  0  0  0  0
  2 28  1  0  0  0  0
  3  4  1  0  0  0  0
  3 57  1  0  0  0  0
  3 58  1  0  0  0  0
  4  5  1  0  0  0  0
  4 27  1  0  0  0  0
  5  6  2  0  0  0  0
  5 59  1  0  0  0  0
  6  7  1  0  0  0  0
  6 22  1  0  0  0  0
  7  8  2  0  0  0  0
  7 20  1  0  0  0  0
  8  9  1  0  0  0  0
  8 17  1  0  0  0  0
  9 10  2  0  0  0  0
  9 15  1  0  0  0  0
 10 11  1  0  0  0  0
 10 60  1  0  0  0  0
 11 12  2  0  0  0  0
 11 61  1  0  0  0  0
 12 13  1  0  0  0  0
 12 14  1  0  0  0  0
 14 15  2  0  0  0  0
 14 62  1  0  0  0  0
 15 16  1  0  0  0  0
 17 18  2  0  0  0  0
 17 19  1  0  0  0  0
 19 20  1  0  0  0  0
 19 63  1  0  0  0  0
 20 21  2  0  0  0  0
 22 23  2  0  0  0  0
 22 27  1  0  0  0  0
 23 24  1  0  0  0  0
 23 64  1  0  0  0  0
 24 25  2  0  0  0  0
 24 65  1  0  0  0  0
 25 26  1  0  0  0  0
 25 66  1  0  0  0  0
 26 27  2  0  0  0  0
 26 67  1  0  0  0  0
 28 29  1  0  0  0  0
 28 68  1  0  0  0  0
 29 30  1  0  0  0  0
 29 69  1  0  0  0  0
 29 70  1  0  0  0  0
 30 31  1  0  0  0  0
 30 71  1  0  0  0  0
 30 72  1  0  0  0  0
 31 32  1  0  0  0  0
 32 33  1  0  0  0  0
 32 73  1  0  0  0  0
 32 74  1  0  0  0  0
 33 34  1  0  0  0  0
 33 75  1  0  0  0  0
 33 76  1  0  0  0  0
 34 35  1  0  0  0  0
 35 36  1  0  0  0  0
 35 77  1  0  0  0  0
 35 78  1  0  0  0  0
 36 37  1  0  0  0  0
 36 79  1  0  0  0  0
 36 80  1  0  0  0  0
 37 38  1  0  0  0  0
 37 81  1  0  0  0  0
 38 39  2  0  0  0  0
 38 43  1  0  0  0  0
 39 40  1  0  0  0  0
 39 82  1  0  0  0  0
 40 41  2  0  0  0  0
 40 83  1  0  0  0  0
 41 42  1  0  0  0  0
 41 84  1  0  0  0  0
 42 43  2  0  0  0  0
 42 55  1  0  0  0  0
 43 44  1  0  0  0  0
 44 45  2  0  0  0  0
 44 46  1  0  0  0  0
 46 47  1  0  0  0  0
 46 55  1  0  0  0  0
 47 48  1  0  0  0  0
 47 53  1  0  0  0  0
 47 85  1  0  0  0  0
 48 49  1  0  0  0  0
 48 86  1  0  0  0  0
 48 87  1  0  0  0  0
 49 50  1  0  0  0  0
 49 88  1  0  0  0  0
 49 89  1  0  0  0  0
 50 51  2  0  0  0  0
 50 52  1  0  0  0  0
 52 53  1  0  0  0  0
 52 90  1  0  0  0  0
 53 54  2  0  0  0  0
 55 56  2  0  0  0  0
M  END
$$$$
protac3895RUN2
  chem.cr 07102519423D
protac3895RUN2
 90 96  0  0  0  0  0  0  0  0999 V2000
    2.4066   -2.6104    0.5416 O   0  0  0  0  0  0  0  0  0  0  0  0
    1.6155   -2.3218   -0.3480 C   0  0  0  0  0  0  0  0  0  0  0  0
    2.0289   -2.0775   -1.7816 C   0  0  0  0  0  0  0  0  0  0  0  0
    1.3117   -2.9196   -2.7611 N   0  0  0  0  0  0  0  0  0  0  0  0
    0.1660   -2.4408   -3.4056 C   0  0  0  0  0  0  0  0  0  0  0  0
   -0.6909   -3.4458   -3.7071 C   0  0  0  0  0  0  0  0  0  0  0  0
   -1.8356   -3.3628   -4.4629 C   0  0  0  0  0  0  0  0  0  0  0  0
   -2.4299   -2.2225   -4.8988 C   0  0  0  0  0  0  0  0  0  0  0  0
   -2.0358   -0.9268   -4.6361 C   0  0  0  0  0  0  0  0  0  0  0  0
   -1.3350   -0.2093   -5.6240 C   0  0  0  0  0  0  0  0  0  0  0  0
   -0.9256    1.1136   -5.3840 C   0  0  0  0  0  0  0  0  0  0  0  0
   -1.2301    1.7261   -4.1578 C   0  0  0  0  0  0  0  0  0  0  0  0
   -0.7322    3.3835   -3.8523 Cl  0  0  0  0  0  0  0  0  0  0  0  0
   -1.9388    1.0179   -3.1737 C   0  0  0  0  0  0  0  0  0  0  0  0
   -2.3426   -0.3057   -3.4080 C   0  0  0  0  0  0  0  0  0  0  0  0
   -3.2321   -1.1672   -2.1518 Cl  0  0  0  0  0  0  0  0  0  0  0  0
   -3.5170   -2.4628   -5.6307 C   0  0  0  0  0  0  0  0  0  0  0  0
   -4.3383   -1.7446   -6.1864 O   0  0  0  0  0  0  0  0  0  0  0  0
   -3.6573   -3.8297   -5.7348 N   0  0  0  0  0  0  0  0  0  0  0  0
   -2.6062   -4.3564   -4.9867 C   0  0  0  0  0  0  0  0  0  0  0  0
   -2.5323   -5.5734   -5.0240 O   0  0  0  0  0  0  0  0  0  0  0  0
   -0.1051   -4.5956   -3.1335 C   0  0  0  0  0  0  0  0  0  0  0  0
   -0.6105   -5.8814   -2.8346 C   0  0  0  0  0  0  0  0  0  0  0  0
    0.2213   -6.8312   -2.1995 C   0  0  0  0  0  0  0  0  0  0  0  0
    1.5266   -6.4955   -1.7882 C   0  0  0  0  0  0  0  0  0  0  0  0
    1.9931   -5.1828   -1.9628 C   0  0  0  0  0  0  0  0  0  0  0  0
    1.1532   -4.2687   -2.6152 C   0  0  0  0  0  0  0  0  0  0  0  0
    0.2510   -2.2012   -0.0453 N   0  0  0  0  0  0  0  0  0  0  0  0
   -0.2800   -2.3318    1.3185 C   0  0  0  0  0  0  0  0  0  0  0  0
   -1.7197   -1.7716    1.4402 C   0  0  0  0  0  0  0  0  0  0  0  0
   -1.7864   -0.4444    0.8841 O   0  0  0  0  0  0  0  0  0  0  0  0
   -1.0323    0.5696    1.5714 C   0  0  0  0  0  0  0  0  0  0  0  0
   -1.1486    1.8766    0.7716 C   0  0  0  0  0  0  0  0  0  0  0  0
   -2.2975    2.5962    1.2444 O   0  0  0  0  0  0  0  0  0  0  0  0
   -2.4539    3.9230    0.7183 C   0  0  0  0  0  0  0  0  0  0  0  0
   -2.6697    4.8837    1.9096 C   0  0  0  0  0  0  0  0  0  0  0  0
   -1.4553    4.9371    2.7404 N   0  0  0  0  0  0  0  0  0  0  0  0
   -1.2892    4.1010    3.8345 C   0  0  0  0  0  0  0  0  0  0  0  0
   -2.2723    3.9653    4.8411 C   0  0  0  0  0  0  0  0  0  0  0  0
   -2.0871    3.0675    5.9219 C   0  0  0  0  0  0  0  0  0  0  0  0
   -0.9190    2.2807    6.0067 C   0  0  0  0  0  0  0  0  0  0  0  0
    0.0474    2.4295    5.0038 C   0  0  0  0  0  0  0  0  0  0  0  0
   -0.1263    3.3293    3.9527 C   0  0  0  0  0  0  0  0  0  0  0  0
    0.9735    3.2485    3.1283 C   0  0  0  0  0  0  0  0  0  0  0  0
    1.3441    4.0665    2.2929 O   0  0  0  0  0  0  0  0  0  0  0  0
    1.8452    2.2931    3.6676 N   0  0  0  0  0  0  0  0  0  0  0  0
    3.1828    1.9178    3.1653 C   0  0  0  0  0  0  0  0  0  0  0  0
    4.2125    3.0154    3.5023 C   0  0  0  0  0  0  0  0  0  0  0  0
    5.6118    2.5487    3.0463 C   0  0  0  0  0  0  0  0  0  0  0  0
    5.6162    2.1560    1.5853 C   0  0  0  0  0  0  0  0  0  0  0  0
    6.6135    2.1966    0.8807 O   0  0  0  0  0  0  0  0  0  0  0  0
    4.4794    1.5385    1.0492 N   0  0  0  0  0  0  0  0  0  0  0  0
    3.2248    1.5768    1.6773 C   0  0  0  0  0  0  0  0  0  0  0  0
    2.3083    1.0528    1.0573 O   0  0  0  0  0  0  0  0  0  0  0  0
    1.2514    1.7921    4.8306 C   0  0  0  0  0  0  0  0  0  0  0  0
    1.8565    1.0815    5.6257 O   0  0  0  0  0  0  0  0  0  0  0  0
    1.8755   -1.0199   -2.0210 H   0  0  0  0  0  0  0  0  0  0  0  0
    3.1016   -2.2836   -1.8722 H   0  0  0  0  0  0  0  0  0  0  0  0
    0.1416   -1.3881   -3.6633 H   0  0  0  0  0  0  0  0  0  0  0  0
   -1.1080   -0.6848   -6.5753 H   0  0  0  0  0  0  0  0  0  0  0  0
   -0.3852    1.6633   -6.1499 H   0  0  0  0  0  0  0  0  0  0  0  0
   -2.1915    1.4973   -2.2346 H   0  0  0  0  0  0  0  0  0  0  0  0
   -4.5214   -4.3114   -5.9280 H   0  0  0  0  0  0  0  0  0  0  0  0
   -1.6357   -6.1615   -3.0203 H   0  0  0  0  0  0  0  0  0  0  0  0
   -0.1617   -7.8269   -1.9966 H   0  0  0  0  0  0  0  0  0  0  0  0
    2.1485   -7.2329   -1.2885 H   0  0  0  0  0  0  0  0  0  0  0  0
    2.9638   -4.8807   -1.5784 H   0  0  0  0  0  0  0  0  0  0  0  0
   -0.3968   -2.0138   -0.8026 H   0  0  0  0  0  0  0  0  0  0  0  0
    0.3884   -1.8098    2.0169 H   0  0  0  0  0  0  0  0  0  0  0  0
   -0.2726   -3.3942    1.5959 H   0  0  0  0  0  0  0  0  0  0  0  0
   -2.0309   -1.7674    2.4931 H   0  0  0  0  0  0  0  0  0  0  0  0
   -2.4056   -2.4331    0.8927 H   0  0  0  0  0  0  0  0  0  0  0  0
    0.0253    0.2954    1.6286 H   0  0  0  0  0  0  0  0  0  0  0  0
   -1.4028    0.7212    2.5928 H   0  0  0  0  0  0  0  0  0  0  0  0
   -1.2309    1.6481   -0.2954 H   0  0  0  0  0  0  0  0  0  0  0  0
   -0.2341    2.4631    0.9172 H   0  0  0  0  0  0  0  0  0  0  0  0
   -1.5681    4.2409    0.1516 H   0  0  0  0  0  0  0  0  0  0  0  0
   -3.3193    3.9598    0.0457 H   0  0  0  0  0  0  0  0  0  0  0  0
   -2.8999    5.8890    1.5304 H   0  0  0  0  0  0  0  0  0  0  0  0
   -3.5332    4.5429    2.4972 H   0  0  0  0  0  0  0  0  0  0  0  0
   -0.5916    5.1033    2.2341 H   0  0  0  0  0  0  0  0  0  0  0  0
   -3.1817    4.5566    4.7923 H   0  0  0  0  0  0  0  0  0  0  0  0
   -2.8563    2.9738    6.6844 H   0  0  0  0  0  0  0  0  0  0  0  0
   -0.7736    1.5740    6.8184 H   0  0  0  0  0  0  0  0  0  0  0  0
    3.4803    1.0039    3.6948 H   0  0  0  0  0  0  0  0  0  0  0  0
    4.1997    3.2374    4.5785 H   0  0  0  0  0  0  0  0  0  0  0  0
    3.9439    3.9404    2.9745 H   0  0  0  0  0  0  0  0  0  0  0  0
    6.3509    3.3427    3.2110 H   0  0  0  0  0  0  0  0  0  0  0  0
    5.9377    1.6905    3.6475 H   0  0  0  0  0  0  0  0  0  0  0  0
    4.5380    1.1578    0.1165 H   0  0  0  0  0  0  0  0  0  0  0  0
  1  2  2  0  0  0  0
  2  3  1  0  0  0  0
  2 28  1  0  0  0  0
  3  4  1  0  0  0  0
  3 57  1  0  0  0  0
  3 58  1  0  0  0  0
  4  5  1  0  0  0  0
  4 27  1  0  0  0  0
  5  6  2  0  0  0  0
  5 59  1  0  0  0  0
  6  7  1  0  0  0  0
  6 22  1  0  0  0  0
  7  8  2  0  0  0  0
  7 20  1  0  0  0  0
  8  9  1  0  0  0  0
  8 17  1  0  0  0  0
  9 10  2  0  0  0  0
  9 15  1  0  0  0  0
 10 11  1  0  0  0  0
 10 60  1  0  0  0  0
 11 12  2  0  0  0  0
 11 61  1  0  0  0  0
 12 13  1  0  0  0  0
 12 14  1  0  0  0  0
 14 15  2  0  0  0  0
 14 62  1  0  0  0  0
 15 16  1  0  0  0  0
 17 18  2  0  0  0  0
 17 19  1  0  0  0  0
 19 20  1  0  0  0  0
 19 63  1  0  0  0  0
 20 21  2  0  0  0  0
 22 23  2  0  0  0  0
 22 27  1  0  0  0  0
 23 24  1  0  0  0  0
 23 64  1  0  0  0  0
 24 25  2  0  0  0  0
 24 65  1  0  0  0  0
 25 26  1  0  0  0  0
 25 66  1  0  0  0  0
 26 27  2  0  0  0  0
 26 67  1  0  0  0  0
 28 29  1  0  0  0  0
 28 68  1  0  0  0  0
 29 30  1  0  0  0  0
 29 69  1  0  0  0  0
 29 70  1  0  0  0  0
 30 31  1  0  0  0  0
 30 71  1  0  0  0  0
 30 72  1  0  0  0  0
 31 32  1  0  0  0  0
 32 33  1  0  0  0  0
 32 73  1  0  0  0  0
 32 74  1  0  0  0  0
 33 34  1  0  0  0  0
 33 75  1  0  0  0  0
 33 76  1  0  0  0  0
 34 35  1  0  0  0  0
 35 36  1  0  0  0  0
 35 77  1  0  0  0  0
 35 78  1  0  0  0  0
 36 37  1  0  0  0  0
 36 79  1  0  0  0  0
 36 80  1  0  0  0  0
 37 38  1  0  0  0  0
 37 81  1  0  0  0  0
 38 39  2  0  0  0  0
 38 43  1  0  0  0  0
 39 40  1  0  0  0  0
 39 82  1  0  0  0  0
 40 41  2  0  0  0  0
 40 83  1  0  0  0  0
 41 42  1  0  0  0  0
 41 84  1  0  0  0  0
 42 43  2  0  0  0  0
 42 55  1  0  0  0  0
 43 44  1  0  0  0  0
 44 45  2  0  0  0  0
 44 46  1  0  0  0  0
 46 47  1  0  0  0  0
 46 55  1  0  0  0  0
 47 48  1  0  0  0  0
 47 53  1  0  0  0  0
 47 85  1  0  0  0  0
 48 49  1  0  0  0  0
 48 86  1  0  0  0  0
 48 87  1  0  0  0  0
 49 50  1  0  0  0  0
 49 88  1  0  0  0  0
 49 89  1  0  0  0  0
 50 51  2  0  0  0  0
 50 52  1  0  0  0  0
 52 53  1  0  0  0  0
 52 90  1  0  0  0  0
 53 54  2  0  0  0  0
 55 56  2  0  0  0  0
M  END
$$$$
protac3895RUN2
  chem.cr 07102519423D
protac3895RUN2
 90 96  0  0  0  0  0  0  0  0999 V2000
   -2.1338   -1.2080   -0.6445 O   0  0  0  0  0  0  0  0  0  0  0  0
   -1.5641   -0.5810   -1.5309 C   0  0  0  0  0  0  0  0  0  0  0  0
   -1.0851   -1.2135   -2.8194 C   0  0  0  0  0  0  0  0  0  0  0  0
   -1.7042   -0.6360   -4.0333 N   0  0  0  0  0  0  0  0  0  0  0  0
   -3.0677   -0.3300   -3.9973 C   0  0  0  0  0  0  0  0  0  0  0  0
   -3.3536    0.7953   -4.6903 C   0  0  0  0  0  0  0  0  0  0  0  0
   -4.5930    1.3362   -4.9235 C   0  0  0  0  0  0  0  0  0  0  0  0
   -5.7481    0.9668   -4.3154 C   0  0  0  0  0  0  0  0  0  0  0  0
   -5.8865    0.0196   -3.3208 C   0  0  0  0  0  0  0  0  0  0  0  0
   -5.5114    0.3405   -2.0022 C   0  0  0  0  0  0  0  0  0  0  0  0
   -5.5786   -0.6323   -0.9888 C   0  0  0  0  0  0  0  0  0  0  0  0
   -6.0331   -1.9255   -1.2895 C   0  0  0  0  0  0  0  0  0  0  0  0
   -6.1059   -3.1458   -0.0240 Cl  0  0  0  0  0  0  0  0  0  0  0  0
   -6.4270   -2.2485   -2.5977 C   0  0  0  0  0  0  0  0  0  0  0  0
   -6.3542   -1.2800   -3.6135 C   0  0  0  0  0  0  0  0  0  0  0  0
   -6.8075   -1.7295   -5.2575 Cl  0  0  0  0  0  0  0  0  0  0  0  0
   -6.7951    1.6549   -4.7723 C   0  0  0  0  0  0  0  0  0  0  0  0
   -7.9915    1.6367   -4.5135 O   0  0  0  0  0  0  0  0  0  0  0  0
   -6.3398    2.5499   -5.7202 N   0  0  0  0  0  0  0  0  0  0  0  0
   -4.9730    2.2880   -5.8176 C   0  0  0  0  0  0  0  0  0  0  0  0
   -4.4145    2.8828   -6.7264 O   0  0  0  0  0  0  0  0  0  0  0  0
   -2.1037    1.2563   -5.1473 C   0  0  0  0  0  0  0  0  0  0  0  0
   -1.6864    2.4855   -5.7054 C   0  0  0  0  0  0  0  0  0  0  0  0
   -0.3242    2.6820   -6.0195 C   0  0  0  0  0  0  0  0  0  0  0  0
    0.6375    1.6917   -5.7305 C   0  0  0  0  0  0  0  0  0  0  0  0
    0.2512    0.5159   -5.0668 C   0  0  0  0  0  0  0  0  0  0  0  0
   -1.1091    0.3431   -4.7761 C   0  0  0  0  0  0  0  0  0  0  0  0
   -1.5340    0.8234   -1.4706 N   0  0  0  0  0  0  0  0  0  0  0  0
   -2.1764    1.5830   -0.3874 C   0  0  0  0  0  0  0  0  0  0  0  0
   -1.3380    1.5433    0.9069 C   0  0  0  0  0  0  0  0  0  0  0  0
   -2.1567    1.9098    2.0358 O   0  0  0  0  0  0  0  0  0  0  0  0
   -3.1580    0.9707    2.4902 C   0  0  0  0  0  0  0  0  0  0  0  0
   -2.5282   -0.3154    3.0891 C   0  0  0  0  0  0  0  0  0  0  0  0
   -1.9419   -0.0179    4.3723 O   0  0  0  0  0  0  0  0  0  0  0  0
   -0.5704    0.4134    4.3819 C   0  0  0  0  0  0  0  0  0  0  0  0
    0.3273   -0.8312    4.2423 C   0  0  0  0  0  0  0  0  0  0  0  0
    1.7495   -0.4497    4.2554 N   0  0  0  0  0  0  0  0  0  0  0  0
    2.7019   -1.0209    5.0926 C   0  0  0  0  0  0  0  0  0  0  0  0
    2.4080   -1.4442    6.4103 C   0  0  0  0  0  0  0  0  0  0  0  0
    3.4056   -2.0304    7.2290 C   0  0  0  0  0  0  0  0  0  0  0  0
    4.7129   -2.2213    6.7382 C   0  0  0  0  0  0  0  0  0  0  0  0
    4.9894   -1.7999    5.4325 C   0  0  0  0  0  0  0  0  0  0  0  0
    4.0142   -1.1953    4.6370 C   0  0  0  0  0  0  0  0  0  0  0  0
    4.5883   -0.8517    3.4318 C   0  0  0  0  0  0  0  0  0  0  0  0
    4.2247    0.0561    2.6921 O   0  0  0  0  0  0  0  0  0  0  0  0
    5.9329   -1.2525    3.4740 N   0  0  0  0  0  0  0  0  0  0  0  0
    6.9401   -1.1274    2.3985 C   0  0  0  0  0  0  0  0  0  0  0  0
    7.7837    0.1451    2.6258 C   0  0  0  0  0  0  0  0  0  0  0  0
    8.8125    0.2901    1.4851 C   0  0  0  0  0  0  0  0  0  0  0  0
    8.1432    0.2817    0.1301 C   0  0  0  0  0  0  0  0  0  0  0  0
    8.6375    0.7877   -0.8654 O   0  0  0  0  0  0  0  0  0  0  0  0
    6.9969   -0.5028   -0.0539 N   0  0  0  0  0  0  0  0  0  0  0  0
    6.3535   -1.1907    0.9888 C   0  0  0  0  0  0  0  0  0  0  0  0
    5.5309   -2.0240    0.6359 O   0  0  0  0  0  0  0  0  0  0  0  0
    6.1580   -1.8540    4.7140 C   0  0  0  0  0  0  0  0  0  0  0  0
    7.2797   -2.1718    5.0963 O   0  0  0  0  0  0  0  0  0  0  0  0
    0.0042   -1.1131   -2.8728 H   0  0  0  0  0  0  0  0  0  0  0  0
   -1.3161   -2.2841   -2.7903 H   0  0  0  0  0  0  0  0  0  0  0  0
   -3.7138   -1.0336   -3.4838 H   0  0  0  0  0  0  0  0  0  0  0  0
   -5.1547    1.3404   -1.7747 H   0  0  0  0  0  0  0  0  0  0  0  0
   -5.2765   -0.3908    0.0251 H   0  0  0  0  0  0  0  0  0  0  0  0
   -6.7823   -3.2500   -2.8267 H   0  0  0  0  0  0  0  0  0  0  0  0
   -6.8944    2.8763   -6.4962 H   0  0  0  0  0  0  0  0  0  0  0  0
   -2.3597    3.3153   -5.8612 H   0  0  0  0  0  0  0  0  0  0  0  0
   -0.0110    3.6219   -6.4701 H   0  0  0  0  0  0  0  0  0  0  0  0
    1.6832    1.8571   -5.9809 H   0  0  0  0  0  0  0  0  0  0  0  0
    0.9877   -0.2291   -4.7850 H   0  0  0  0  0  0  0  0  0  0  0  0
   -1.2394    1.3116   -2.3121 H   0  0  0  0  0  0  0  0  0  0  0  0
   -3.1672    1.1514   -0.2213 H   0  0  0  0  0  0  0  0  0  0  0  0
   -2.3159    2.6271   -0.6927 H   0  0  0  0  0  0  0  0  0  0  0  0
   -0.5049    2.2508    0.8087 H   0  0  0  0  0  0  0  0  0  0  0  0
   -0.9021    0.5464    1.0412 H   0  0  0  0  0  0  0  0  0  0  0  0
   -3.8307    0.6860    1.6749 H   0  0  0  0  0  0  0  0  0  0  0  0
   -3.7776    1.4414    3.2638 H   0  0  0  0  0  0  0  0  0  0  0  0
   -1.8113   -0.7706    2.3957 H   0  0  0  0  0  0  0  0  0  0  0  0
   -3.3353   -1.0437    3.2297 H   0  0  0  0  0  0  0  0  0  0  0  0
   -0.3655    1.1263    3.5725 H   0  0  0  0  0  0  0  0  0  0  0  0
   -0.3451    0.9152    5.3315 H   0  0  0  0  0  0  0  0  0  0  0  0
    0.0970   -1.5322    5.0539 H   0  0  0  0  0  0  0  0  0  0  0  0
    0.1065   -1.3469    3.3001 H   0  0  0  0  0  0  0  0  0  0  0  0
    2.1277   -0.0241    3.4143 H   0  0  0  0  0  0  0  0  0  0  0  0
    1.4125   -1.3010    6.8177 H   0  0  0  0  0  0  0  0  0  0  0  0
    3.1612   -2.3319    8.2451 H   0  0  0  0  0  0  0  0  0  0  0  0
    5.4908   -2.6716    7.3514 H   0  0  0  0  0  0  0  0  0  0  0  0
    7.6088   -1.9940    2.4834 H   0  0  0  0  0  0  0  0  0  0  0  0
    8.2890    0.0942    3.5997 H   0  0  0  0  0  0  0  0  0  0  0  0
    7.1184    1.0219    2.6458 H   0  0  0  0  0  0  0  0  0  0  0  0
    9.3782    1.2221    1.6063 H   0  0  0  0  0  0  0  0  0  0  0  0
    9.5427   -0.5279    1.5247 H   0  0  0  0  0  0  0  0  0  0  0  0
    6.6131   -0.5758   -0.9834 H   0  0  0  0  0  0  0  0  0  0  0  0
  1  2  2  0  0  0  0
  2  3  1  0  0  0  0
  2 28  1  0  0  0  0
  3  4  1  0  0  0  0
  3 57  1  0  0  0  0
  3 58  1  0  0  0  0
  4  5  1  0  0  0  0
  4 27  1  0  0  0  0
  5  6  2  0  0  0  0
  5 59  1  0  0  0  0
  6  7  1  0  0  0  0
  6 22  1  0  0  0  0
  7  8  2  0  0  0  0
  7 20  1  0  0  0  0
  8  9  1  0  0  0  0
  8 17  1  0  0  0  0
  9 10  2  0  0  0  0
  9 15  1  0  0  0  0
 10 11  1  0  0  0  0
 10 60  1  0  0  0  0
 11 12  2  0  0  0  0
 11 61  1  0  0  0  0
 12 13  1  0  0  0  0
 12 14  1  0  0  0  0
 14 15  2  0  0  0  0
 14 62  1  0  0  0  0
 15 16  1  0  0  0  0
 17 18  2  0  0  0  0
 17 19  1  0  0  0  0
 19 20  1  0  0  0  0
 19 63  1  0  0  0  0
 20 21  2  0  0  0  0
 22 23  2  0  0  0  0
 22 27  1  0  0  0  0
 23 24  1  0  0  0  0
 23 64  1  0  0  0  0
 24 25  2  0  0  0  0
 24 65  1  0  0  0  0
 25 26  1  0  0  0  0
 25 66  1  0  0  0  0
 26 27  2  0  0  0  0
 26 67  1  0  0  0  0
 28 29  1  0  0  0  0
 28 68  1  0  0  0  0
 29 30  1  0  0  0  0
 29 69  1  0  0  0  0
 29 70  1  0  0  0  0
 30 31  1  0  0  0  0
 30 71  1  0  0  0  0
 30 72  1  0  0  0  0
 31 32  1  0  0  0  0
 32 33  1  0  0  0  0
 32 73  1  0  0  0  0
 32 74  1  0  0  0  0
 33 34  1  0  0  0  0
 33 75  1  0  0  0  0
 33 76  1  0  0  0  0
 34 35  1  0  0  0  0
 35 36  1  0  0  0  0
 35 77  1  0  0  0  0
 35 78  1  0  0  0  0
 36 37  1  0  0  0  0
 36 79  1  0  0  0  0
 36 80  1  0  0  0  0
 37 38  1  0  0  0  0
 37 81  1  0  0  0  0
 38 39  2  0  0  0  0
 38 43  1  0  0  0  0
 39 40  1  0  0  0  0
 39 82  1  0  0  0  0
 40 41  2  0  0  0  0
 40 83  1  0  0  0  0
 41 42  1  0  0  0  0
 41 84  1  0  0  0  0
 42 43  2  0  0  0  0
 42 55  1  0  0  0  0
 43 44  1  0  0  0  0
 44 45  2  0  0  0  0
 44 46  1  0  0  0  0
 46 47  1  0  0  0  0
 46 55  1  0  0  0  0
 47 48  1  0  0  0  0
 47 53  1  0  0  0  0
 47 85  1  0  0  0  0
 48 49  1  0  0  0  0
 48 86  1  0  0  0  0
 48 87  1  0  0  0  0
 49 50  1  0  0  0  0
 49 88  1  0  0  0  0
 49 89  1  0  0  0  0
 50 51  2  0  0  0  0
 50 52  1  0  0  0  0
 52 53  1  0  0  0  0
 52 90  1  0  0  0  0
 53 54  2  0  0  0  0
 55 56  2  0  0  0  0
M  END
$$$$
protac3895RUN2
  chem.cr 07102519423D
protac3895RUN2
 90 96  0  0  0  0  0  0  0  0999 V2000
   -2.2604    2.6695   -2.4770 O   0  0  0  0  0  0  0  0  0  0  0  0
   -2.6997    2.2818   -1.4028 C   0  0  0  0  0  0  0  0  0  0  0  0
   -4.0192    1.5675   -1.2544 C   0  0  0  0  0  0  0  0  0  0  0  0
   -3.9267    0.1168   -1.5108 N   0  0  0  0  0  0  0  0  0  0  0  0
   -4.1474   -0.3410   -2.8156 C   0  0  0  0  0  0  0  0  0  0  0  0
   -4.7664   -1.5455   -2.8247 C   0  0  0  0  0  0  0  0  0  0  0  0
   -5.0362   -2.3368   -3.9112 C   0  0  0  0  0  0  0  0  0  0  0  0
   -4.9385   -1.9726   -5.2148 C   0  0  0  0  0  0  0  0  0  0  0  0
   -4.6013   -0.7248   -5.7066 C   0  0  0  0  0  0  0  0  0  0  0  0
   -3.3425   -0.5357   -6.3085 C   0  0  0  0  0  0  0  0  0  0  0  0
   -2.9737    0.7248   -6.8079 C   0  0  0  0  0  0  0  0  0  0  0  0
   -3.8647    1.8048   -6.7110 C   0  0  0  0  0  0  0  0  0  0  0  0
   -3.4016    3.3811   -7.3380 Cl  0  0  0  0  0  0  0  0  0  0  0  0
   -5.1263    1.6258   -6.1222 C   0  0  0  0  0  0  0  0  0  0  0  0
   -5.5005    0.3636   -5.6276 C   0  0  0  0  0  0  0  0  0  0  0  0
   -7.1012    0.1700   -4.9122 Cl  0  0  0  0  0  0  0  0  0  0  0  0
   -5.2240   -2.9825   -6.0386 C   0  0  0  0  0  0  0  0  0  0  0  0
   -5.2390   -3.0984   -7.2561 O   0  0  0  0  0  0  0  0  0  0  0  0
   -5.5586   -4.0782   -5.2680 N   0  0  0  0  0  0  0  0  0  0  0  0
   -5.3869   -3.6510   -3.9543 C   0  0  0  0  0  0  0  0  0  0  0  0
   -5.4751   -4.5401   -3.1199 O   0  0  0  0  0  0  0  0  0  0  0  0
   -5.0233   -1.8261   -1.4698 C   0  0  0  0  0  0  0  0  0  0  0  0
   -5.8751   -2.7619   -0.8401 C   0  0  0  0  0  0  0  0  0  0  0  0
   -5.9787   -2.7723    0.5683 C   0  0  0  0  0  0  0  0  0  0  0  0
   -5.2941   -1.8208    1.3515 C   0  0  0  0  0  0  0  0  0  0  0  0
   -4.5413   -0.8117    0.7269 C   0  0  0  0  0  0  0  0  0  0  0  0
   -4.4533   -0.8279   -0.6723 C   0  0  0  0  0  0  0  0  0  0  0  0
   -2.0546    2.6723   -0.2190 N   0  0  0  0  0  0  0  0  0  0  0  0
   -0.6359    3.0581   -0.1839 C   0  0  0  0  0  0  0  0  0  0  0  0
    0.0758    2.4228    1.0163 C   0  0  0  0  0  0  0  0  0  0  0  0
    1.4844    2.5788    0.7939 O   0  0  0  0  0  0  0  0  0  0  0  0
    2.3362    1.5750    1.3746 C   0  0  0  0  0  0  0  0  0  0  0  0
    2.3240    0.3065    0.4869 C   0  0  0  0  0  0  0  0  0  0  0  0
    1.2003   -0.5181    0.8422 O   0  0  0  0  0  0  0  0  0  0  0  0
    1.2560   -1.8719    0.3632 C   0  0  0  0  0  0  0  0  0  0  0  0
    1.6488   -2.8184    1.5292 C   0  0  0  0  0  0  0  0  0  0  0  0
    2.7473   -2.2881    2.3635 N   0  0  0  0  0  0  0  0  0  0  0  0
    2.5578   -1.5244    3.5134 C   0  0  0  0  0  0  0  0  0  0  0  0
    1.4285   -1.6608    4.3591 C   0  0  0  0  0  0  0  0  0  0  0  0
    1.2590   -0.8356    5.4968 C   0  0  0  0  0  0  0  0  0  0  0  0
    2.2063    0.1589    5.8106 C   0  0  0  0  0  0  0  0  0  0  0  0
    3.3245    0.2821    4.9798 C   0  0  0  0  0  0  0  0  0  0  0  0
    3.5036   -0.5494    3.8714 C   0  0  0  0  0  0  0  0  0  0  0  0
    4.6792   -0.1779    3.2606 C   0  0  0  0  0  0  0  0  0  0  0  0
    5.1548   -0.5841    2.2063 O   0  0  0  0  0  0  0  0  0  0  0  0
    5.2083    0.9217    3.9493 N   0  0  0  0  0  0  0  0  0  0  0  0
    6.5704    1.4642    3.7889 C   0  0  0  0  0  0  0  0  0  0  0  0
    6.6397    2.3356    2.5160 C   0  0  0  0  0  0  0  0  0  0  0  0
    8.0953    2.7722    2.2539 C   0  0  0  0  0  0  0  0  0  0  0  0
    9.0226    1.5824    2.1830 C   0  0  0  0  0  0  0  0  0  0  0  0
   10.0580    1.5733    1.5360 O   0  0  0  0  0  0  0  0  0  0  0  0
    8.8008    0.5080    3.0512 N   0  0  0  0  0  0  0  0  0  0  0  0
    7.6309    0.3648    3.8145 C   0  0  0  0  0  0  0  0  0  0  0  0
    7.6373   -0.5477    4.6302 O   0  0  0  0  0  0  0  0  0  0  0  0
    4.3760    1.1667    5.0435 C   0  0  0  0  0  0  0  0  0  0  0  0
    4.4486    2.2055    5.6917 O   0  0  0  0  0  0  0  0  0  0  0  0
   -4.4279    1.7363   -0.2525 H   0  0  0  0  0  0  0  0  0  0  0  0
   -4.7269    2.0029   -1.9706 H   0  0  0  0  0  0  0  0  0  0  0  0
   -3.7367    0.2508   -3.6284 H   0  0  0  0  0  0  0  0  0  0  0  0
   -2.6527   -1.3718   -6.3888 H   0  0  0  0  0  0  0  0  0  0  0  0
   -2.0014    0.8640   -7.2721 H   0  0  0  0  0  0  0  0  0  0  0  0
   -5.8146    2.4637   -6.0548 H   0  0  0  0  0  0  0  0  0  0  0  0
   -5.4485   -5.0348   -5.5657 H   0  0  0  0  0  0  0  0  0  0  0  0
   -6.5032   -3.4409   -1.3990 H   0  0  0  0  0  0  0  0  0  0  0  0
   -6.6172   -3.5071    1.0508 H   0  0  0  0  0  0  0  0  0  0  0  0
   -5.3909   -1.8385    2.4332 H   0  0  0  0  0  0  0  0  0  0  0  0
   -4.0593   -0.0358    1.3106 H   0  0  0  0  0  0  0  0  0  0  0  0
   -2.5285    2.5131    0.6588 H   0  0  0  0  0  0  0  0  0  0  0  0
   -0.5435    4.1502   -0.1404 H   0  0  0  0  0  0  0  0  0  0  0  0
   -0.1423    2.7141   -1.1023 H   0  0  0  0  0  0  0  0  0  0  0  0
   -0.2115    1.3675    1.0729 H   0  0  0  0  0  0  0  0  0  0  0  0
   -0.2219    2.9098    1.9536 H   0  0  0  0  0  0  0  0  0  0  0  0
    2.0350    1.3296    2.4008 H   0  0  0  0  0  0  0  0  0  0  0  0
    3.3666    1.9496    1.4140 H   0  0  0  0  0  0  0  0  0  0  0  0
    3.2603   -0.2387    0.6422 H   0  0  0  0  0  0  0  0  0  0  0  0
    2.2788    0.5902   -0.5720 H   0  0  0  0  0  0  0  0  0  0  0  0
    0.2717   -2.1736   -0.0200 H   0  0  0  0  0  0  0  0  0  0  0  0
    1.9763   -1.9691   -0.4611 H   0  0  0  0  0  0  0  0  0  0  0  0
    0.7544   -3.0093    2.1312 H   0  0  0  0  0  0  0  0  0  0  0  0
    1.9520   -3.7846    1.1063 H   0  0  0  0  0  0  0  0  0  0  0  0
    3.6435   -2.1468    1.9075 H   0  0  0  0  0  0  0  0  0  0  0  0
    0.6752   -2.4117    4.1548 H   0  0  0  0  0  0  0  0  0  0  0  0
    0.3875   -0.9648    6.1333 H   0  0  0  0  0  0  0  0  0  0  0  0
    2.0813    0.8092    6.6739 H   0  0  0  0  0  0  0  0  0  0  0  0
    6.7785    2.1099    4.6514 H   0  0  0  0  0  0  0  0  0  0  0  0
    5.9787    3.2074    2.6212 H   0  0  0  0  0  0  0  0  0  0  0  0
    6.2733    1.7568    1.6556 H   0  0  0  0  0  0  0  0  0  0  0  0
    8.1544    3.3343    1.3139 H   0  0  0  0  0  0  0  0  0  0  0  0
    8.4381    3.4440    3.0494 H   0  0  0  0  0  0  0  0  0  0  0  0
    9.4912   -0.2276    3.0897 H   0  0  0  0  0  0  0  0  0  0  0  0
  1  2  2  0  0  0  0
  2  3  1  0  0  0  0
  2 28  1  0  0  0  0
  3  4  1  0  0  0  0
  3 57  1  0  0  0  0
  3 58  1  0  0  0  0
  4  5  1  0  0  0  0
  4 27  1  0  0  0  0
  5  6  2  0  0  0  0
  5 59  1  0  0  0  0
  6  7  1  0  0  0  0
  6 22  1  0  0  0  0
  7  8  2  0  0  0  0
  7 20  1  0  0  0  0
  8  9  1  0  0  0  0
  8 17  1  0  0  0  0
  9 10  2  0  0  0  0
  9 15  1  0  0  0  0
 10 11  1  0  0  0  0
 10 60  1  0  0  0  0
 11 12  2  0  0  0  0
 11 61  1  0  0  0  0
 12 13  1  0  0  0  0
 12 14  1  0  0  0  0
 14 15  2  0  0  0  0
 14 62  1  0  0  0  0
 15 16  1  0  0  0  0
 17 18  2  0  0  0  0
 17 19  1  0  0  0  0
 19 20  1  0  0  0  0
 19 63  1  0  0  0  0
 20 21  2  0  0  0  0
 22 23  2  0  0  0  0
 22 27  1  0  0  0  0
 23 24  1  0  0  0  0
 23 64  1  0  0  0  0
 24 25  2  0  0  0  0
 24 65  1  0  0  0  0
 25 26  1  0  0  0  0
 25 66  1  0  0  0  0
 26 27  2  0  0  0  0
 26 67  1  0  0  0  0
 28 29  1  0  0  0  0
 28 68  1  0  0  0  0
 29 30  1  0  0  0  0
 29 69  1  0  0  0  0
 29 70  1  0  0  0  0
 30 31  1  0  0  0  0
 30 71  1  0  0  0  0
 30 72  1  0  0  0  0
 31 32  1  0  0  0  0
 32 33  1  0  0  0  0
 32 73  1  0  0  0  0
 32 74  1  0  0  0  0
 33 34  1  0  0  0  0
 33 75  1  0  0  0  0
 33 76  1  0  0  0  0
 34 35  1  0  0  0  0
 35 36  1  0  0  0  0
 35 77  1  0  0  0  0
 35 78  1  0  0  0  0
 36 37  1  0  0  0  0
 36 79  1  0  0  0  0
 36 80  1  0  0  0  0
 37 38  1  0  0  0  0
 37 81  1  0  0  0  0
 38 39  2  0  0  0  0
 38 43  1  0  0  0  0
 39 40  1  0  0  0  0
 39 82  1  0  0  0  0
 40 41  2  0  0  0  0
 40 83  1  0  0  0  0
 41 42  1  0  0  0  0
 41 84  1  0  0  0  0
 42 43  2  0  0  0  0
 42 55  1  0  0  0  0
 43 44  1  0  0  0  0
 44 45  2  0  0  0  0
 44 46  1  0  0  0  0
 46 47  1  0  0  0  0
 46 55  1  0  0  0  0
 47 48  1  0  0  0  0
 47 53  1  0  0  0  0
 47 85  1  0  0  0  0
 48 49  1  0  0  0  0
 48 86  1  0  0  0  0
 48 87  1  0  0  0  0
 49 50  1  0  0  0  0
 49 88  1  0  0  0  0
 49 89  1  0  0  0  0
 50 51  2  0  0  0  0
 50 52  1  0  0  0  0
 52 53  1  0  0  0  0
 52 90  1  0  0  0  0
 53 54  2  0  0  0  0
 55 56  2  0  0  0  0
M  END
$$$$
protac3895RUN2
  chem.cr 07102519423D
protac3895RUN2
 90 96  0  0  0  0  0  0  0  0999 V2000
    0.9973   -3.2465   -0.5990 O   0  0  0  0  0  0  0  0  0  0  0  0
    1.9212   -3.3087    0.2018 C   0  0  0  0  0  0  0  0  0  0  0  0
    3.1528   -4.1642   -0.0120 C   0  0  0  0  0  0  0  0  0  0  0  0
    2.8891   -5.6119    0.0995 N   0  0  0  0  0  0  0  0  0  0  0  0
    2.2061   -6.3016   -0.9020 C   0  0  0  0  0  0  0  0  0  0  0  0
    2.5385   -7.6165   -0.9190 C   0  0  0  0  0  0  0  0  0  0  0  0
    2.1573   -8.5589   -1.8522 C   0  0  0  0  0  0  0  0  0  0  0  0
    1.3301   -8.3448   -2.9076 C   0  0  0  0  0  0  0  0  0  0  0  0
    0.7563   -7.1515   -3.2882 C   0  0  0  0  0  0  0  0  0  0  0  0
    1.4920   -6.2818   -4.1216 C   0  0  0  0  0  0  0  0  0  0  0  0
    0.9477   -5.0500   -4.5198 C   0  0  0  0  0  0  0  0  0  0  0  0
   -0.3395   -4.6859   -4.0914 C   0  0  0  0  0  0  0  0  0  0  0  0
   -1.0302   -3.1494   -4.5898 Cl  0  0  0  0  0  0  0  0  0  0  0  0
   -1.0829   -5.5490   -3.2726 C   0  0  0  0  0  0  0  0  0  0  0  0
   -0.5412   -6.7834   -2.8716 C   0  0  0  0  0  0  0  0  0  0  0  0
   -1.4997   -7.8481   -1.8464 Cl  0  0  0  0  0  0  0  0  0  0  0  0
    1.1704   -9.4309   -3.6656 C   0  0  0  0  0  0  0  0  0  0  0  0
    0.5785   -9.6475   -4.7124 O   0  0  0  0  0  0  0  0  0  0  0  0
    1.9032  -10.4507   -3.0967 N   0  0  0  0  0  0  0  0  0  0  0  0
    2.5485   -9.8556   -2.0130 C   0  0  0  0  0  0  0  0  0  0  0  0
    3.3766  -10.5795   -1.4844 O   0  0  0  0  0  0  0  0  0  0  0  0
    3.3923   -7.7742    0.2015 C   0  0  0  0  0  0  0  0  0  0  0  0
    3.8570   -8.9109    0.9014 C   0  0  0  0  0  0  0  0  0  0  0  0
    4.6803   -8.7485    2.0369 C   0  0  0  0  0  0  0  0  0  0  0  0
    4.9952   -7.4667    2.5290 C   0  0  0  0  0  0  0  0  0  0  0  0
    4.4498   -6.3299    1.9108 C   0  0  0  0  0  0  0  0  0  0  0  0
    3.6544   -6.5199    0.7720 C   0  0  0  0  0  0  0  0  0  0  0  0
    1.9692   -2.3667    1.2439 N   0  0  0  0  0  0  0  0  0  0  0  0
    0.8714   -1.4231    1.5155 C   0  0  0  0  0  0  0  0  0  0  0  0
    1.0270   -0.7048    2.8733 C   0  0  0  0  0  0  0  0  0  0  0  0
    2.1888    0.1377    2.7946 O   0  0  0  0  0  0  0  0  0  0  0  0
    2.5129    0.9169    3.9673 C   0  0  0  0  0  0  0  0  0  0  0  0
    1.4666    2.0356    4.1970 C   0  0  0  0  0  0  0  0  0  0  0  0
    1.5331    2.9505    3.0956 O   0  0  0  0  0  0  0  0  0  0  0  0
    0.6058    4.0380    3.1625 C   0  0  0  0  0  0  0  0  0  0  0  0
    0.7470    4.8339    1.8539 C   0  0  0  0  0  0  0  0  0  0  0  0
   -0.4188    5.7101    1.6427 N   0  0  0  0  0  0  0  0  0  0  0  0
   -1.6316    5.3002    1.0950 C   0  0  0  0  0  0  0  0  0  0  0  0
   -1.9702    3.9364    0.9047 C   0  0  0  0  0  0  0  0  0  0  0  0
   -3.2052    3.5609    0.3237 C   0  0  0  0  0  0  0  0  0  0  0  0
   -4.1327    4.5414   -0.0855 C   0  0  0  0  0  0  0  0  0  0  0  0
   -3.7920    5.8824    0.1168 C   0  0  0  0  0  0  0  0  0  0  0  0
   -2.5774    6.2551    0.6896 C   0  0  0  0  0  0  0  0  0  0  0  0
   -2.5231    7.6279    0.6934 C   0  0  0  0  0  0  0  0  0  0  0  0
   -1.6412    8.3558    1.1378 O   0  0  0  0  0  0  0  0  0  0  0  0
   -3.6943    8.1370    0.1172 N   0  0  0  0  0  0  0  0  0  0  0  0
   -3.7545    9.4260   -0.6062 C   0  0  0  0  0  0  0  0  0  0  0  0
   -4.9684   10.2548   -0.1206 C   0  0  0  0  0  0  0  0  0  0  0  0
   -5.2737   11.4001   -1.1089 C   0  0  0  0  0  0  0  0  0  0  0  0
   -5.5040   10.8577   -2.4979 C   0  0  0  0  0  0  0  0  0  0  0  0
   -6.2484   11.3786   -3.3153 O   0  0  0  0  0  0  0  0  0  0  0  0
   -4.6643    9.8360   -2.9481 N   0  0  0  0  0  0  0  0  0  0  0  0
   -3.7248    9.2079   -2.1186 C   0  0  0  0  0  0  0  0  0  0  0  0
   -2.8503    8.5682   -2.6840 O   0  0  0  0  0  0  0  0  0  0  0  0
   -4.4772    7.0236   -0.2220 C   0  0  0  0  0  0  0  0  0  0  0  0
   -5.5912    7.1159   -0.7268 O   0  0  0  0  0  0  0  0  0  0  0  0
    3.5446   -3.9665   -1.0157 H   0  0  0  0  0  0  0  0  0  0  0  0
    3.9315   -3.8829    0.7003 H   0  0  0  0  0  0  0  0  0  0  0  0
    1.5728   -5.7087   -1.5550 H   0  0  0  0  0  0  0  0  0  0  0  0
    2.4901   -6.5642   -4.4473 H   0  0  0  0  0  0  0  0  0  0  0  0
    1.5171   -4.3830   -5.1621 H   0  0  0  0  0  0  0  0  0  0  0  0
   -2.0781   -5.2609   -2.9466 H   0  0  0  0  0  0  0  0  0  0  0  0
    2.2979  -11.2110   -3.6265 H   0  0  0  0  0  0  0  0  0  0  0  0
    3.5586   -9.9142    0.6494 H   0  0  0  0  0  0  0  0  0  0  0  0
    5.0532   -9.6280    2.5562 H   0  0  0  0  0  0  0  0  0  0  0  0
    5.6152   -7.3605    3.4159 H   0  0  0  0  0  0  0  0  0  0  0  0
    4.6120   -5.3436    2.3287 H   0  0  0  0  0  0  0  0  0  0  0  0
    2.8220   -2.2677    1.7781 H   0  0  0  0  0  0  0  0  0  0  0  0
   -0.0779   -1.9767    1.5008 H   0  0  0  0  0  0  0  0  0  0  0  0
    0.8389   -0.6781    0.7080 H   0  0  0  0  0  0  0  0  0  0  0  0
    1.1300   -1.4440    3.6788 H   0  0  0  0  0  0  0  0  0  0  0  0
    0.1226   -0.1132    3.0589 H   0  0  0  0  0  0  0  0  0  0  0  0
    3.4983    1.3860    3.8413 H   0  0  0  0  0  0  0  0  0  0  0  0
    2.5649    0.2732    4.8558 H   0  0  0  0  0  0  0  0  0  0  0  0
    1.7039    2.5623    5.1316 H   0  0  0  0  0  0  0  0  0  0  0  0
    0.4617    1.6093    4.2981 H   0  0  0  0  0  0  0  0  0  0  0  0
   -0.4201    3.6592    3.2588 H   0  0  0  0  0  0  0  0  0  0  0  0
    0.8123    4.6864    4.0241 H   0  0  0  0  0  0  0  0  0  0  0  0
    1.6687    5.4304    1.8916 H   0  0  0  0  0  0  0  0  0  0  0  0
    0.8466    4.1394    1.0101 H   0  0  0  0  0  0  0  0  0  0  0  0
   -0.2966    6.7138    1.7432 H   0  0  0  0  0  0  0  0  0  0  0  0
   -1.2765    3.1517    1.1916 H   0  0  0  0  0  0  0  0  0  0  0  0
   -3.4371    2.5086    0.1726 H   0  0  0  0  0  0  0  0  0  0  0  0
   -5.0749    4.2737   -0.5568 H   0  0  0  0  0  0  0  0  0  0  0  0
   -2.8408    9.9891   -0.3689 H   0  0  0  0  0  0  0  0  0  0  0  0
   -4.7763   10.6397    0.8879 H   0  0  0  0  0  0  0  0  0  0  0  0
   -5.8534    9.6091   -0.0464 H   0  0  0  0  0  0  0  0  0  0  0  0
   -6.1656   11.9498   -0.7825 H   0  0  0  0  0  0  0  0  0  0  0  0
   -4.4450   12.1174   -1.1354 H   0  0  0  0  0  0  0  0  0  0  0  0
   -4.6950    9.5776   -3.9230 H   0  0  0  0  0  0  0  0  0  0  0  0
  1  2  2  0  0  0  0
  2  3  1  0  0  0  0
  2 28  1  0  0  0  0
  3  4  1  0  0  0  0
  3 57  1  0  0  0  0
  3 58  1  0  0  0  0
  4  5  1  0  0  0  0
  4 27  1  0  0  0  0
  5  6  2  0  0  0  0
  5 59  1  0  0  0  0
  6  7  1  0  0  0  0
  6 22  1  0  0  0  0
  7  8  2  0  0  0  0
  7 20  1  0  0  0  0
  8  9  1  0  0  0  0
  8 17  1  0  0  0  0
  9 10  2  0  0  0  0
  9 15  1  0  0  0  0
 10 11  1  0  0  0  0
 10 60  1  0  0  0  0
 11 12  2  0  0  0  0
 11 61  1  0  0  0  0
 12 13  1  0  0  0  0
 12 14  1  0  0  0  0
 14 15  2  0  0  0  0
 14 62  1  0  0  0  0
 15 16  1  0  0  0  0
 17 18  2  0  0  0  0
 17 19  1  0  0  0  0
 19 20  1  0  0  0  0
 19 63  1  0  0  0  0
 20 21  2  0  0  0  0
 22 23  2  0  0  0  0
 22 27  1  0  0  0  0
 23 24  1  0  0  0  0
 23 64  1  0  0  0  0
 24 25  2  0  0  0  0
 24 65  1  0  0  0  0
 25 26  1  0  0  0  0
 25 66  1  0  0  0  0
 26 27  2  0  0  0  0
 26 67  1  0  0  0  0
 28 29  1  0  0  0  0
 28 68  1  0  0  0  0
 29 30  1  0  0  0  0
 29 69  1  0  0  0  0
 29 70  1  0  0  0  0
 30 31  1  0  0  0  0
 30 71  1  0  0  0  0
 30 72  1  0  0  0  0
 31 32  1  0  0  0  0
 32 33  1  0  0  0  0
 32 73  1  0  0  0  0
 32 74  1  0  0  0  0
 33 34  1  0  0  0  0
 33 75  1  0  0  0  0
 33 76  1  0  0  0  0
 34 35  1  0  0  0  0
 35 36  1  0  0  0  0
 35 77  1  0  0  0  0
 35 78  1  0  0  0  0
 36 37  1  0  0  0  0
 36 79  1  0  0  0  0
 36 80  1  0  0  0  0
 37 38  1  0  0  0  0
 37 81  1  0  0  0  0
 38 39  2  0  0  0  0
 38 43  1  0  0  0  0
 39 40  1  0  0  0  0
 39 82  1  0  0  0  0
 40 41  2  0  0  0  0
 40 83  1  0  0  0  0
 41 42  1  0  0  0  0
 41 84  1  0  0  0  0
 42 43  2  0  0  0  0
 42 55  1  0  0  0  0
 43 44  1  0  0  0  0
 44 45  2  0  0  0  0
 44 46  1  0  0  0  0
 46 47  1  0  0  0  0
 46 55  1  0  0  0  0
 47 48  1  0  0  0  0
 47 53  1  0  0  0  0
 47 85  1  0  0  0  0
 48 49  1  0  0  0  0
 48 86  1  0  0  0  0
 48 87  1  0  0  0  0
 49 50  1  0  0  0  0
 49 88  1  0  0  0  0
 49 89  1  0  0  0  0
 50 51  2  0  0  0  0
 50 52  1  0  0  0  0
 52 53  1  0  0  0  0
 52 90  1  0  0  0  0
 53 54  2  0  0  0  0
 55 56  2  0  0  0  0
M  END
$$$$
protac3895RUN2
  chem.cr 07102519423D
protac3895RUN2
 90 96  0  0  0  0  0  0  0  0999 V2000
    3.7914    3.9363   -3.7063 O   0  0  0  0  0  0  0  0  0  0  0  0
    4.0794    2.9652   -3.0204 C   0  0  0  0  0  0  0  0  0  0  0  0
    5.4960    2.5660   -2.6935 C   0  0  0  0  0  0  0  0  0  0  0  0
    5.8022    2.6078   -1.2489 N   0  0  0  0  0  0  0  0  0  0  0  0
    6.5178    1.5740   -0.6397 C   0  0  0  0  0  0  0  0  0  0  0  0
    7.2142    2.0135    0.4355 C   0  0  0  0  0  0  0  0  0  0  0  0
    7.9210    1.2578    1.3407 C   0  0  0  0  0  0  0  0  0  0  0  0
    8.2050   -0.0631    1.2289 C   0  0  0  0  0  0  0  0  0  0  0  0
    7.8589   -0.8942    0.1856 C   0  0  0  0  0  0  0  0  0  0  0  0
    8.6663   -0.9332   -0.9645 C   0  0  0  0  0  0  0  0  0  0  0  0
    8.3093   -1.7493   -2.0503 C   0  0  0  0  0  0  0  0  0  0  0  0
    7.1438   -2.5296   -1.9893 C   0  0  0  0  0  0  0  0  0  0  0  0
    6.7059   -3.5513   -3.3468 Cl  0  0  0  0  0  0  0  0  0  0  0  0
    6.3320   -2.4997   -0.8445 C   0  0  0  0  0  0  0  0  0  0  0  0
    6.6906   -1.6878    0.2444 C   0  0  0  0  0  0  0  0  0  0  0  0
    5.6337   -1.6429    1.6547 Cl  0  0  0  0  0  0  0  0  0  0  0  0
    8.8783   -0.5253    2.2819 C   0  0  0  0  0  0  0  0  0  0  0  0
    9.3130   -1.6305    2.5856 O   0  0  0  0  0  0  0  0  0  0  0  0
    9.0683    0.5185    3.1660 N   0  0  0  0  0  0  0  0  0  0  0  0
    8.4343    1.5996    2.5511 C   0  0  0  0  0  0  0  0  0  0  0  0
    8.3776    2.5968    3.2562 O   0  0  0  0  0  0  0  0  0  0  0  0
    7.0153    3.4107    0.4407 C   0  0  0  0  0  0  0  0  0  0  0  0
    7.6805    4.4674    1.1035 C   0  0  0  0  0  0  0  0  0  0  0  0
    7.3015    5.8027    0.8439 C   0  0  0  0  0  0  0  0  0  0  0  0
    6.3151    6.1043   -0.1169 C   0  0  0  0  0  0  0  0  0  0  0  0
    5.7254    5.0684   -0.8599 C   0  0  0  0  0  0  0  0  0  0  0  0
    6.1089    3.7521   -0.5698 C   0  0  0  0  0  0  0  0  0  0  0  0
    3.0516    2.2213   -2.4266 N   0  0  0  0  0  0  0  0  0  0  0  0
    1.7396    2.8078   -2.1234 C   0  0  0  0  0  0  0  0  0  0  0  0
    1.0179    2.0359   -0.9943 C   0  0  0  0  0  0  0  0  0  0  0  0
    0.3302    0.9008   -1.5510 O   0  0  0  0  0  0  0  0  0  0  0  0
   -0.9595    1.1939   -2.1132 C   0  0  0  0  0  0  0  0  0  0  0  0
   -1.5326   -0.0965   -2.7287 C   0  0  0  0  0  0  0  0  0  0  0  0
   -2.8104    0.2272   -3.3040 O   0  0  0  0  0  0  0  0  0  0  0  0
   -3.9343    0.2407   -2.4096 C   0  0  0  0  0  0  0  0  0  0  0  0
   -4.5333   -1.1743   -2.4025 C   0  0  0  0  0  0  0  0  0  0  0  0
   -5.6739   -1.2543   -1.4761 N   0  0  0  0  0  0  0  0  0  0  0  0
   -6.4277   -2.4019   -1.2578 C   0  0  0  0  0  0  0  0  0  0  0  0
   -6.2908   -3.5698   -2.0517 C   0  0  0  0  0  0  0  0  0  0  0  0
   -7.0550   -4.7311   -1.7838 C   0  0  0  0  0  0  0  0  0  0  0  0
   -7.9717   -4.7541   -0.7142 C   0  0  0  0  0  0  0  0  0  0  0  0
   -8.1028   -3.5949    0.0606 C   0  0  0  0  0  0  0  0  0  0  0  0
   -7.3537   -2.4486   -0.2047 C   0  0  0  0  0  0  0  0  0  0  0  0
   -7.6640   -1.5122    0.7561 C   0  0  0  0  0  0  0  0  0  0  0  0
   -7.0545   -0.4858    1.0340 O   0  0  0  0  0  0  0  0  0  0  0  0
   -8.5766   -2.0911    1.6462 N   0  0  0  0  0  0  0  0  0  0  0  0
   -8.9845   -1.5323    2.9523 C   0  0  0  0  0  0  0  0  0  0  0  0
   -7.9958   -1.9974    4.0525 C   0  0  0  0  0  0  0  0  0  0  0  0
   -8.6213   -1.8472    5.4537 C   0  0  0  0  0  0  0  0  0  0  0  0
   -9.9157   -2.6187    5.5277 C   0  0  0  0  0  0  0  0  0  0  0  0
  -10.3054   -3.2048    6.5266 O   0  0  0  0  0  0  0  0  0  0  0  0
  -10.8056   -2.4844    4.4604 N   0  0  0  0  0  0  0  0  0  0  0  0
  -10.4518   -1.8395    3.2659 C   0  0  0  0  0  0  0  0  0  0  0  0
  -11.3786   -1.4900    2.5486 O   0  0  0  0  0  0  0  0  0  0  0  0
   -8.8697   -3.3820    1.1827 C   0  0  0  0  0  0  0  0  0  0  0  0
   -9.3085   -4.2455    1.9321 O   0  0  0  0  0  0  0  0  0  0  0  0
    5.6946    1.5629   -3.0898 H   0  0  0  0  0  0  0  0  0  0  0  0
    6.1722    3.2634   -3.2043 H   0  0  0  0  0  0  0  0  0  0  0  0
    6.3673    0.5730   -1.0236 H   0  0  0  0  0  0  0  0  0  0  0  0
    9.5651   -0.3249   -1.0104 H   0  0  0  0  0  0  0  0  0  0  0  0
    8.9371   -1.7786   -2.9360 H   0  0  0  0  0  0  0  0  0  0  0  0
    5.4278   -3.1015   -0.7983 H   0  0  0  0  0  0  0  0  0  0  0  0
    9.0204    0.3856    4.1632 H   0  0  0  0  0  0  0  0  0  0  0  0
    8.5171    4.3058    1.7625 H   0  0  0  0  0  0  0  0  0  0  0  0
    7.8011    6.6108    1.3698 H   0  0  0  0  0  0  0  0  0  0  0  0
    6.0496    7.1392   -0.3177 H   0  0  0  0  0  0  0  0  0  0  0  0
    5.0143    5.2897   -1.6516 H   0  0  0  0  0  0  0  0  0  0  0  0
    3.2828    1.3270   -2.0145 H   0  0  0  0  0  0  0  0  0  0  0  0
    1.1361    2.8239   -3.0392 H   0  0  0  0  0  0  0  0  0  0  0  0
    1.8898    3.8494   -1.8079 H   0  0  0  0  0  0  0  0  0  0  0  0
    0.3061    2.7064   -0.4948 H   0  0  0  0  0  0  0  0  0  0  0  0
    1.7489    1.7149   -0.2404 H   0  0  0  0  0  0  0  0  0  0  0  0
   -0.8873    1.9563   -2.9008 H   0  0  0  0  0  0  0  0  0  0  0  0
   -1.6377    1.5647   -1.3343 H   0  0  0  0  0  0  0  0  0  0  0  0
   -1.6227   -0.8787   -1.9634 H   0  0  0  0  0  0  0  0  0  0  0  0
   -0.8496   -0.4552   -3.5101 H   0  0  0  0  0  0  0  0  0  0  0  0
   -3.6429    0.5365   -1.3930 H   0  0  0  0  0  0  0  0  0  0  0  0
   -4.6893    0.9500   -2.7666 H   0  0  0  0  0  0  0  0  0  0  0  0
   -4.8614   -1.4200   -3.4226 H   0  0  0  0  0  0  0  0  0  0  0  0
   -3.7632   -1.8997   -2.1093 H   0  0  0  0  0  0  0  0  0  0  0  0
   -5.8490   -0.4791   -0.8431 H   0  0  0  0  0  0  0  0  0  0  0  0
   -5.5878   -3.5908   -2.8775 H   0  0  0  0  0  0  0  0  0  0  0  0
   -6.9294   -5.6162   -2.4018 H   0  0  0  0  0  0  0  0  0  0  0  0
   -8.5532   -5.6435   -0.4839 H   0  0  0  0  0  0  0  0  0  0  0  0
   -8.9169   -0.4378    2.8805 H   0  0  0  0  0  0  0  0  0  0  0  0
   -7.0556   -1.4334    3.9778 H   0  0  0  0  0  0  0  0  0  0  0  0
   -7.7457   -3.0561    3.8929 H   0  0  0  0  0  0  0  0  0  0  0  0
   -7.9294   -2.2172    6.2200 H   0  0  0  0  0  0  0  0  0  0  0  0
   -8.8164   -0.7909    5.6767 H   0  0  0  0  0  0  0  0  0  0  0  0
  -11.7433   -2.8443    4.5595 H   0  0  0  0  0  0  0  0  0  0  0  0
  1  2  2  0  0  0  0
  2  3  1  0  0  0  0
  2 28  1  0  0  0  0
  3  4  1  0  0  0  0
  3 57  1  0  0  0  0
  3 58  1  0  0  0  0
  4  5  1  0  0  0  0
  4 27  1  0  0  0  0
  5  6  2  0  0  0  0
  5 59  1  0  0  0  0
  6  7  1  0  0  0  0
  6 22  1  0  0  0  0
  7  8  2  0  0  0  0
  7 20  1  0  0  0  0
  8  9  1  0  0  0  0
  8 17  1  0  0  0  0
  9 10  2  0  0  0  0
  9 15  1  0  0  0  0
 10 11  1  0  0  0  0
 10 60  1  0  0  0  0
 11 12  2  0  0  0  0
 11 61  1  0  0  0  0
 12 13  1  0  0  0  0
 12 14  1  0  0  0  0
 14 15  2  0  0  0  0
 14 62  1  0  0  0  0
 15 16  1  0  0  0  0
 17 18  2  0  0  0  0
 17 19  1  0  0  0  0
 19 20  1  0  0  0  0
 19 63  1  0  0  0  0
 20 21  2  0  0  0  0
 22 23  2  0  0  0  0
 22 27  1  0  0  0  0
 23 24  1  0  0  0  0
 23 64  1  0  0  0  0
 24 25  2  0  0  0  0
 24 65  1  0  0  0  0
 25 26  1  0  0  0  0
 25 66  1  0  0  0  0
 26 27  2  0  0  0  0
 26 67  1  0  0  0  0
 28 29  1  0  0  0  0
 28 68  1  0  0  0  0
 29 30  1  0  0  0  0
 29 69  1  0  0  0  0
 29 70  1  0  0  0  0
 30 31  1  0  0  0  0
 30 71  1  0  0  0  0
 30 72  1  0  0  0  0
 31 32  1  0  0  0  0
 32 33  1  0  0  0  0
 32 73  1  0  0  0  0
 32 74  1  0  0  0  0
 33 34  1  0  0  0  0
 33 75  1  0  0  0  0
 33 76  1  0  0  0  0
 34 35  1  0  0  0  0
 35 36  1  0  0  0  0
 35 77  1  0  0  0  0
 35 78  1  0  0  0  0
 36 37  1  0  0  0  0
 36 79  1  0  0  0  0
 36 80  1  0  0  0  0
 37 38  1  0  0  0  0
 37 81  1  0  0  0  0
 38 39  2  0  0  0  0
 38 43  1  0  0  0  0
 39 40  1  0  0  0  0
 39 82  1  0  0  0  0
 40 41  2  0  0  0  0
 40 83  1  0  0  0  0
 41 42  1  0  0  0  0
 41 84  1  0  0  0  0
 42 43  2  0  0  0  0
 42 55  1  0  0  0  0
 43 44  1  0  0  0  0
 44 45  2  0  0  0  0
 44 46  1  0  0  0  0
 46 47  1  0  0  0  0
 46 55  1  0  0  0  0
 47 48  1  0  0  0  0
 47 53  1  0  0  0  0
 47 85  1  0  0  0  0
 48 49  1  0  0  0  0
 48 86  1  0  0  0  0
 48 87  1  0  0  0  0
 49 50  1  0  0  0  0
 49 88  1  0  0  0  0
 49 89  1  0  0  0  0
 50 51  2  0  0  0  0
 50 52  1  0  0  0  0
 52 53  1  0  0  0  0
 52 90  1  0  0  0  0
 53 54  2  0  0  0  0
 55 56  2  0  0  0  0
M  END
$$$$
protac3895RUN2
  chem.cr 07102519423D
protac3895RUN2
 90 96  0  0  0  0  0  0  0  0999 V2000
    3.3424    0.0387    2.2186 O   0  0  0  0  0  0  0  0  0  0  0  0
    2.5255   -0.7968    1.8610 C   0  0  0  0  0  0  0  0  0  0  0  0
    2.2416   -1.0877    0.4059 C   0  0  0  0  0  0  0  0  0  0  0  0
    3.2620   -1.9543   -0.2055 N   0  0  0  0  0  0  0  0  0  0  0  0
    4.3718   -1.3700   -0.8196 C   0  0  0  0  0  0  0  0  0  0  0  0
    4.8084   -2.1068   -1.8679 C   0  0  0  0  0  0  0  0  0  0  0  0
    5.9422   -1.8895   -2.6191 C   0  0  0  0  0  0  0  0  0  0  0  0
    6.7419   -0.7903   -2.5639 C   0  0  0  0  0  0  0  0  0  0  0  0
    6.5718    0.3317   -1.7779 C   0  0  0  0  0  0  0  0  0  0  0  0
    7.3154    0.4600   -0.5881 C   0  0  0  0  0  0  0  0  0  0  0  0
    7.1560    1.5883    0.2324 C   0  0  0  0  0  0  0  0  0  0  0  0
    6.2592    2.6019   -0.1400 C   0  0  0  0  0  0  0  0  0  0  0  0
    6.0513    4.0116    0.8893 Cl  0  0  0  0  0  0  0  0  0  0  0  0
    5.5353    2.4974   -1.3383 C   0  0  0  0  0  0  0  0  0  0  0  0
    5.6907    1.3675   -2.1588 C   0  0  0  0  0  0  0  0  0  0  0  0
    4.7791    1.2665   -3.6638 Cl  0  0  0  0  0  0  0  0  0  0  0  0
    7.7664   -0.8696   -3.4123 C   0  0  0  0  0  0  0  0  0  0  0  0
    8.6826   -0.1090   -3.7003 O   0  0  0  0  0  0  0  0  0  0  0  0
    7.6990   -2.0907   -4.0465 N   0  0  0  0  0  0  0  0  0  0  0  0
    6.5452   -2.6871   -3.5425 C   0  0  0  0  0  0  0  0  0  0  0  0
    6.3537   -3.8175   -3.9648 O   0  0  0  0  0  0  0  0  0  0  0  0
    3.8782   -3.1674   -1.9669 C   0  0  0  0  0  0  0  0  0  0  0  0
    3.6076   -4.1231   -2.9715 C   0  0  0  0  0  0  0  0  0  0  0  0
    2.5715   -5.0660   -2.7842 C   0  0  0  0  0  0  0  0  0  0  0  0
    1.7513   -5.0241   -1.6392 C   0  0  0  0  0  0  0  0  0  0  0  0
    1.9216   -3.9962   -0.6994 C   0  0  0  0  0  0  0  0  0  0  0  0
    2.9699   -3.0876   -0.9042 C   0  0  0  0  0  0  0  0  0  0  0  0
    2.1072   -1.7083    2.8389 N   0  0  0  0  0  0  0  0  0  0  0  0
    0.8586   -2.4878    2.7847 C   0  0  0  0  0  0  0  0  0  0  0  0
    0.1617   -2.5118    4.1575 C   0  0  0  0  0  0  0  0  0  0  0  0
   -0.0789   -1.1497    4.5280 O   0  0  0  0  0  0  0  0  0  0  0  0
   -0.5972   -0.9499    5.8482 C   0  0  0  0  0  0  0  0  0  0  0  0
   -0.6480    0.5722    6.1141 C   0  0  0  0  0  0  0  0  0  0  0  0
   -1.9084    1.1234    5.6848 O   0  0  0  0  0  0  0  0  0  0  0  0
   -2.1888    1.0805    4.2782 C   0  0  0  0  0  0  0  0  0  0  0  0
   -3.4381    1.9469    4.0481 C   0  0  0  0  0  0  0  0  0  0  0  0
   -3.8752    1.8981    2.6417 N   0  0  0  0  0  0  0  0  0  0  0  0
   -4.9106    2.6577    2.0999 C   0  0  0  0  0  0  0  0  0  0  0  0
   -5.6601    3.5884    2.8620 C   0  0  0  0  0  0  0  0  0  0  0  0
   -6.6863    4.3659    2.2680 C   0  0  0  0  0  0  0  0  0  0  0  0
   -6.9930    4.2251    0.9001 C   0  0  0  0  0  0  0  0  0  0  0  0
   -6.2561    3.2960    0.1556 C   0  0  0  0  0  0  0  0  0  0  0  0
   -5.2451    2.5307    0.7407 C   0  0  0  0  0  0  0  0  0  0  0  0
   -4.7109    1.7288   -0.2421 C   0  0  0  0  0  0  0  0  0  0  0  0
   -3.7363    0.9876   -0.1751 O   0  0  0  0  0  0  0  0  0  0  0  0
   -5.3528    2.0115   -1.4537 N   0  0  0  0  0  0  0  0  0  0  0  0
   -5.2968    1.1546   -2.6565 C   0  0  0  0  0  0  0  0  0  0  0  0
   -4.5344    1.8659   -3.7945 C   0  0  0  0  0  0  0  0  0  0  0  0
   -4.5300    0.9707   -5.0537 C   0  0  0  0  0  0  0  0  0  0  0  0
   -5.9265    0.5536   -5.4546 C   0  0  0  0  0  0  0  0  0  0  0  0
   -6.2146    0.1821   -6.5827 O   0  0  0  0  0  0  0  0  0  0  0  0
   -6.8765    0.3277   -4.4511 N   0  0  0  0  0  0  0  0  0  0  0  0
   -6.6729    0.6694   -3.1055 C   0  0  0  0  0  0  0  0  0  0  0  0
   -7.5459    0.2984   -2.3332 O   0  0  0  0  0  0  0  0  0  0  0  0
   -6.3412    2.9687   -1.1798 C   0  0  0  0  0  0  0  0  0  0  0  0
   -6.8900    3.6048   -2.0719 O   0  0  0  0  0  0  0  0  0  0  0  0
    1.2546   -1.5377    0.2758 H   0  0  0  0  0  0  0  0  0  0  0  0
    2.2269   -0.1374   -0.1414 H   0  0  0  0  0  0  0  0  0  0  0  0
    4.7824   -0.4798   -0.3527 H   0  0  0  0  0  0  0  0  0  0  0  0
    8.0132   -0.3236   -0.3026 H   0  0  0  0  0  0  0  0  0  0  0  0
    7.7262    1.6787    1.1527 H   0  0  0  0  0  0  0  0  0  0  0  0
    4.8582    3.2935   -1.6347 H   0  0  0  0  0  0  0  0  0  0  0  0
    8.1188   -2.3050   -4.9366 H   0  0  0  0  0  0  0  0  0  0  0  0
    4.1234   -4.1369   -3.9180 H   0  0  0  0  0  0  0  0  0  0  0  0
    2.3920   -5.8235   -3.5446 H   0  0  0  0  0  0  0  0  0  0  0  0
    0.9609   -5.7590   -1.5081 H   0  0  0  0  0  0  0  0  0  0  0  0
    1.2542   -3.9083    0.1508 H   0  0  0  0  0  0  0  0  0  0  0  0
    2.5355   -1.5823    3.7483 H   0  0  0  0  0  0  0  0  0  0  0  0
    1.0920   -3.5171    2.4779 H   0  0  0  0  0  0  0  0  0  0  0  0
    0.1669   -2.0509    2.0533 H   0  0  0  0  0  0  0  0  0  0  0  0
    0.8171   -3.0038    4.8880 H   0  0  0  0  0  0  0  0  0  0  0  0
   -0.7801   -3.0735    4.0949 H   0  0  0  0  0  0  0  0  0  0  0  0
    0.0674   -1.4151    6.5857 H   0  0  0  0  0  0  0  0  0  0  0  0
   -1.5973   -1.3871    5.9592 H   0  0  0  0  0  0  0  0  0  0  0  0
    0.1924    1.0654    5.6073 H   0  0  0  0  0  0  0  0  0  0  0  0
   -0.5265    0.7431    7.1910 H   0  0  0  0  0  0  0  0  0  0  0  0
   -1.3477    1.4824    3.6989 H   0  0  0  0  0  0  0  0  0  0  0  0
   -2.3843    0.0519    3.9510 H   0  0  0  0  0  0  0  0  0  0  0  0
   -4.2446    1.5930    4.7030 H   0  0  0  0  0  0  0  0  0  0  0  0
   -3.1986    2.9809    4.3283 H   0  0  0  0  0  0  0  0  0  0  0  0
   -3.3642    1.3093    1.9921 H   0  0  0  0  0  0  0  0  0  0  0  0
   -5.4465    3.7311    3.9171 H   0  0  0  0  0  0  0  0  0  0  0  0
   -7.2401    5.0832    2.8708 H   0  0  0  0  0  0  0  0  0  0  0  0
   -7.7758    4.8167    0.4337 H   0  0  0  0  0  0  0  0  0  0  0  0
   -4.7342    0.2522   -2.3913 H   0  0  0  0  0  0  0  0  0  0  0  0
   -3.5079    2.0957   -3.4768 H   0  0  0  0  0  0  0  0  0  0  0  0
   -5.0267    2.8232   -4.0198 H   0  0  0  0  0  0  0  0  0  0  0  0
   -4.0608    1.5034   -5.8903 H   0  0  0  0  0  0  0  0  0  0  0  0
   -3.9317    0.0678   -4.8801 H   0  0  0  0  0  0  0  0  0  0  0  0
   -7.7675   -0.0636   -4.7144 H   0  0  0  0  0  0  0  0  0  0  0  0
  1  2  2  0  0  0  0
  2  3  1  0  0  0  0
  2 28  1  0  0  0  0
  3  4  1  0  0  0  0
  3 57  1  0  0  0  0
  3 58  1  0  0  0  0
  4  5  1  0  0  0  0
  4 27  1  0  0  0  0
  5  6  2  0  0  0  0
  5 59  1  0  0  0  0
  6  7  1  0  0  0  0
  6 22  1  0  0  0  0
  7  8  2  0  0  0  0
  7 20  1  0  0  0  0
  8  9  1  0  0  0  0
  8 17  1  0  0  0  0
  9 10  2  0  0  0  0
  9 15  1  0  0  0  0
 10 11  1  0  0  0  0
 10 60  1  0  0  0  0
 11 12  2  0  0  0  0
 11 61  1  0  0  0  0
 12 13  1  0  0  0  0
 12 14  1  0  0  0  0
 14 15  2  0  0  0  0
 14 62  1  0  0  0  0
 15 16  1  0  0  0  0
 17 18  2  0  0  0  0
 17 19  1  0  0  0  0
 19 20  1  0  0  0  0
 19 63  1  0  0  0  0
 20 21  2  0  0  0  0
 22 23  2  0  0  0  0
 22 27  1  0  0  0  0
 23 24  1  0  0  0  0
 23 64  1  0  0  0  0
 24 25  2  0  0  0  0
 24 65  1  0  0  0  0
 25 26  1  0  0  0  0
 25 66  1  0  0  0  0
 26 27  2  0  0  0  0
 26 67  1  0  0  0  0
 28 29  1  0  0  0  0
 28 68  1  0  0  0  0
 29 30  1  0  0  0  0
 29 69  1  0  0  0  0
 29 70  1  0  0  0  0
 30 31  1  0  0  0  0
 30 71  1  0  0  0  0
 30 72  1  0  0  0  0
 31 32  1  0  0  0  0
 32 33  1  0  0  0  0
 32 73  1  0  0  0  0
 32 74  1  0  0  0  0
 33 34  1  0  0  0  0
 33 75  1  0  0  0  0
 33 76  1  0  0  0  0
 34 35  1  0  0  0  0
 35 36  1  0  0  0  0
 35 77  1  0  0  0  0
 35 78  1  0  0  0  0
 36 37  1  0  0  0  0
 36 79  1  0  0  0  0
 36 80  1  0  0  0  0
 37 38  1  0  0  0  0
 37 81  1  0  0  0  0
 38 39  2  0  0  0  0
 38 43  1  0  0  0  0
 39 40  1  0  0  0  0
 39 82  1  0  0  0  0
 40 41  2  0  0  0  0
 40 83  1  0  0  0  0
 41 42  1  0  0  0  0
 41 84  1  0  0  0  0
 42 43  2  0  0  0  0
 42 55  1  0  0  0  0
 43 44  1  0  0  0  0
 44 45  2  0  0  0  0
 44 46  1  0  0  0  0
 46 47  1  0  0  0  0
 46 55  1  0  0  0  0
 47 48  1  0  0  0  0
 47 53  1  0  0  0  0
 47 85  1  0  0  0  0
 48 49  1  0  0  0  0
 48 86  1  0  0  0  0
 48 87  1  0  0  0  0
 49 50  1  0  0  0  0
 49 88  1  0  0  0  0
 49 89  1  0  0  0  0
 50 51  2  0  0  0  0
 50 52  1  0  0  0  0
 52 53  1  0  0  0  0
 52 90  1  0  0  0  0
 53 54  2  0  0  0  0
 55 56  2  0  0  0  0
M  END
$$$$
protac3895RUN2
  chem.cr 07102519423D
protac3895RUN2
 90 96  0  0  0  0  0  0  0  0999 V2000
    1.3173   -3.2657   -2.6701 O   0  0  0  0  0  0  0  0  0  0  0  0
    2.0239   -2.2851   -2.5031 C   0  0  0  0  0  0  0  0  0  0  0  0
    3.4039   -2.1561   -3.1063 C   0  0  0  0  0  0  0  0  0  0  0  0
    3.4047   -1.5718   -4.4623 N   0  0  0  0  0  0  0  0  0  0  0  0
    3.3875   -0.2060   -4.7265 C   0  0  0  0  0  0  0  0  0  0  0  0
    3.3199    0.0327   -6.0591 C   0  0  0  0  0  0  0  0  0  0  0  0
    3.4090    1.2506   -6.6949 C   0  0  0  0  0  0  0  0  0  0  0  0
    3.4474    2.4659   -6.0863 C   0  0  0  0  0  0  0  0  0  0  0  0
    3.4052    2.7092   -4.7289 C   0  0  0  0  0  0  0  0  0  0  0  0
    4.6131    2.9131   -4.0339 C   0  0  0  0  0  0  0  0  0  0  0  0
    4.6061    3.0943   -2.6399 C   0  0  0  0  0  0  0  0  0  0  0  0
    3.3895    3.0872   -1.9377 C   0  0  0  0  0  0  0  0  0  0  0  0
    3.3800    3.3029   -0.1905 Cl  0  0  0  0  0  0  0  0  0  0  0  0
    2.1795    2.9086   -2.6273 C   0  0  0  0  0  0  0  0  0  0  0  0
    2.1832    2.7145   -4.0190 C   0  0  0  0  0  0  0  0  0  0  0  0
    0.6522    2.4358   -4.8513 Cl  0  0  0  0  0  0  0  0  0  0  0  0
    3.5702    3.4664   -6.9598 C   0  0  0  0  0  0  0  0  0  0  0  0
    3.6727    4.6805   -6.8405 O   0  0  0  0  0  0  0  0  0  0  0  0
    3.5885    2.9208   -8.2259 N   0  0  0  0  0  0  0  0  0  0  0  0
    3.5465    1.5432   -8.0176 C   0  0  0  0  0  0  0  0  0  0  0  0
    3.7275    0.8863   -9.0310 O   0  0  0  0  0  0  0  0  0  0  0  0
    3.1780   -1.2499   -6.6418 C   0  0  0  0  0  0  0  0  0  0  0  0
    2.7936   -1.6792   -7.9335 C   0  0  0  0  0  0  0  0  0  0  0  0
    2.6805   -3.0591   -8.2107 C   0  0  0  0  0  0  0  0  0  0  0  0
    2.8688   -4.0176   -7.1947 C   0  0  0  0  0  0  0  0  0  0  0  0
    3.1341   -3.6039   -5.8801 C   0  0  0  0  0  0  0  0  0  0  0  0
    3.2738   -2.2310   -5.6449 C   0  0  0  0  0  0  0  0  0  0  0  0
    1.3650   -1.1100   -2.1291 N   0  0  0  0  0  0  0  0  0  0  0  0
    1.7181   -0.3632   -0.9114 C   0  0  0  0  0  0  0  0  0  0  0  0
    1.1350   -1.0441    0.3400 C   0  0  0  0  0  0  0  0  0  0  0  0
    1.3065   -0.1566    1.4519 O   0  0  0  0  0  0  0  0  0  0  0  0
    0.7723   -0.6555    2.6899 C   0  0  0  0  0  0  0  0  0  0  0  0
    1.0066    0.4085    3.7754 C   0  0  0  0  0  0  0  0  0  0  0  0
    0.6685   -0.1945    5.0360 O   0  0  0  0  0  0  0  0  0  0  0  0
    0.8553    0.6207    6.2067 C   0  0  0  0  0  0  0  0  0  0  0  0
   -0.3361    1.5898    6.3665 C   0  0  0  0  0  0  0  0  0  0  0  0
   -1.5839    0.8244    6.4994 N   0  0  0  0  0  0  0  0  0  0  0  0
   -2.8319    1.3983    6.7124 C   0  0  0  0  0  0  0  0  0  0  0  0
   -3.0218    2.5847    7.4600 C   0  0  0  0  0  0  0  0  0  0  0  0
   -4.3119    3.1533    7.6107 C   0  0  0  0  0  0  0  0  0  0  0  0
   -5.4364    2.5549    7.0011 C   0  0  0  0  0  0  0  0  0  0  0  0
   -5.2345    1.3774    6.2700 C   0  0  0  0  0  0  0  0  0  0  0  0
   -3.9678    0.8082    6.1490 C   0  0  0  0  0  0  0  0  0  0  0  0
   -4.0777   -0.3073    5.3563 C   0  0  0  0  0  0  0  0  0  0  0  0
   -3.2656   -1.2156    5.2176 O   0  0  0  0  0  0  0  0  0  0  0  0
   -5.4110   -0.4406    4.9492 N   0  0  0  0  0  0  0  0  0  0  0  0
   -5.8034   -1.1015    3.6884 C   0  0  0  0  0  0  0  0  0  0  0  0
   -5.9941   -2.6158    3.9406 C   0  0  0  0  0  0  0  0  0  0  0  0
   -6.0310   -3.3896    2.6068 C   0  0  0  0  0  0  0  0  0  0  0  0
   -4.7785   -3.1248    1.8070 C   0  0  0  0  0  0  0  0  0  0  0  0
   -4.2342   -3.9554    1.0972 O   0  0  0  0  0  0  0  0  0  0  0  0
   -4.2853   -1.8175    1.7712 N   0  0  0  0  0  0  0  0  0  0  0  0
   -4.8107   -0.7874    2.5639 C   0  0  0  0  0  0  0  0  0  0  0  0
   -4.4763    0.3482    2.2551 O   0  0  0  0  0  0  0  0  0  0  0  0
   -6.1200    0.6132    5.5425 C   0  0  0  0  0  0  0  0  0  0  0  0
   -7.2953    0.8461    5.2841 O   0  0  0  0  0  0  0  0  0  0  0  0
    4.0408   -1.5491   -2.4530 H   0  0  0  0  0  0  0  0  0  0  0  0
    3.8491   -3.1559   -3.1633 H   0  0  0  0  0  0  0  0  0  0  0  0
    3.5044    0.4628   -3.8826 H   0  0  0  0  0  0  0  0  0  0  0  0
    5.5548    2.9135   -4.5783 H   0  0  0  0  0  0  0  0  0  0  0  0
    5.5420    3.2415   -2.1065 H   0  0  0  0  0  0  0  0  0  0  0  0
    1.2389    2.9169   -2.0860 H   0  0  0  0  0  0  0  0  0  0  0  0
    3.9754    3.3665   -9.0434 H   0  0  0  0  0  0  0  0  0  0  0  0
    2.5183   -0.9956   -8.7204 H   0  0  0  0  0  0  0  0  0  0  0  0
    2.4108   -3.3852   -9.2124 H   0  0  0  0  0  0  0  0  0  0  0  0
    2.7557   -5.0756   -7.4176 H   0  0  0  0  0  0  0  0  0  0  0  0
    3.1964   -4.3254   -5.0716 H   0  0  0  0  0  0  0  0  0  0  0  0
    0.3939   -1.0713   -2.4156 H   0  0  0  0  0  0  0  0  0  0  0  0
    1.3043    0.6511   -0.9849 H   0  0  0  0  0  0  0  0  0  0  0  0
    2.8078   -0.2729   -0.8127 H   0  0  0  0  0  0  0  0  0  0  0  0
    1.6458   -1.9995    0.5157 H   0  0  0  0  0  0  0  0  0  0  0  0
    0.0694   -1.2497    0.1792 H   0  0  0  0  0  0  0  0  0  0  0  0
    1.2779   -1.5849    2.9833 H   0  0  0  0  0  0  0  0  0  0  0  0
   -0.3052   -0.8529    2.6069 H   0  0  0  0  0  0  0  0  0  0  0  0
    0.3847    1.2883    3.5684 H   0  0  0  0  0  0  0  0  0  0  0  0
    2.0623    0.7090    3.7682 H   0  0  0  0  0  0  0  0  0  0  0  0
    0.9082   -0.0223    7.0960 H   0  0  0  0  0  0  0  0  0  0  0  0
    1.7963    1.1832    6.1471 H   0  0  0  0  0  0  0  0  0  0  0  0
   -0.1737    2.2083    7.2583 H   0  0  0  0  0  0  0  0  0  0  0  0
   -0.4015    2.2544    5.4945 H   0  0  0  0  0  0  0  0  0  0  0  0
   -1.6064   -0.0842    6.0402 H   0  0  0  0  0  0  0  0  0  0  0  0
   -2.1763    3.0698    7.9331 H   0  0  0  0  0  0  0  0  0  0  0  0
   -4.4376    4.0651    8.1910 H   0  0  0  0  0  0  0  0  0  0  0  0
   -6.4282    2.9923    7.0860 H   0  0  0  0  0  0  0  0  0  0  0  0
   -6.7672   -0.6858    3.3641 H   0  0  0  0  0  0  0  0  0  0  0  0
   -6.9105   -2.7846    4.5215 H   0  0  0  0  0  0  0  0  0  0  0  0
   -5.1586   -2.9931    4.5474 H   0  0  0  0  0  0  0  0  0  0  0  0
   -6.1184   -4.4671    2.7967 H   0  0  0  0  0  0  0  0  0  0  0  0
   -6.9072   -3.0973    2.0142 H   0  0  0  0  0  0  0  0  0  0  0  0
   -3.5255   -1.6025    1.1431 H   0  0  0  0  0  0  0  0  0  0  0  0
  1  2  2  0  0  0  0
  2  3  1  0  0  0  0
  2 28  1  0  0  0  0
  3  4  1  0  0  0  0
  3 57  1  0  0  0  0
  3 58  1  0  0  0  0
  4  5  1  0  0  0  0
  4 27  1  0  0  0  0
  5  6  2  0  0  0  0
  5 59  1  0  0  0  0
  6  7  1  0  0  0  0
  6 22  1  0  0  0  0
  7  8  2  0  0  0  0
  7 20  1  0  0  0  0
  8  9  1  0  0  0  0
  8 17  1  0  0  0  0
  9 10  2  0  0  0  0
  9 15  1  0  0  0  0
 10 11  1  0  0  0  0
 10 60  1  0  0  0  0
 11 12  2  0  0  0  0
 11 61  1  0  0  0  0
 12 13  1  0  0  0  0
 12 14  1  0  0  0  0
 14 15  2  0  0  0  0
 14 62  1  0  0  0  0
 15 16  1  0  0  0  0
 17 18  2  0  0  0  0
 17 19  1  0  0  0  0
 19 20  1  0  0  0  0
 19 63  1  0  0  0  0
 20 21  2  0  0  0  0
 22 23  2  0  0  0  0
 22 27  1  0  0  0  0
 23 24  1  0  0  0  0
 23 64  1  0  0  0  0
 24 25  2  0  0  0  0
 24 65  1  0  0  0  0
 25 26  1  0  0  0  0
 25 66  1  0  0  0  0
 26 27  2  0  0  0  0
 26 67  1  0  0  0  0
 28 29  1  0  0  0  0
 28 68  1  0  0  0  0
 29 30  1  0  0  0  0
 29 69  1  0  0  0  0
 29 70  1  0  0  0  0
 30 31  1  0  0  0  0
 30 71  1  0  0  0  0
 30 72  1  0  0  0  0
 31 32  1  0  0  0  0
 32 33  1  0  0  0  0
 32 73  1  0  0  0  0
 32 74  1  0  0  0  0
 33 34  1  0  0  0  0
 33 75  1  0  0  0  0
 33 76  1  0  0  0  0
 34 35  1  0  0  0  0
 35 36  1  0  0  0  0
 35 77  1  0  0  0  0
 35 78  1  0  0  0  0
 36 37  1  0  0  0  0
 36 79  1  0  0  0  0
 36 80  1  0  0  0  0
 37 38  1  0  0  0  0
 37 81  1  0  0  0  0
 38 39  2  0  0  0  0
 38 43  1  0  0  0  0
 39 40  1  0  0  0  0
 39 82  1  0  0  0  0
 40 41  2  0  0  0  0
 40 83  1  0  0  0  0
 41 42  1  0  0  0  0
 41 84  1  0  0  0  0
 42 43  2  0  0  0  0
 42 55  1  0  0  0  0
 43 44  1  0  0  0  0
 44 45  2  0  0  0  0
 44 46  1  0  0  0  0
 46 47  1  0  0  0  0
 46 55  1  0  0  0  0
 47 48  1  0  0  0  0
 47 53  1  0  0  0  0
 47 85  1  0  0  0  0
 48 49  1  0  0  0  0
 48 86  1  0  0  0  0
 48 87  1  0  0  0  0
 49 50  1  0  0  0  0
 49 88  1  0  0  0  0
 49 89  1  0  0  0  0
 50 51  2  0  0  0  0
 50 52  1  0  0  0  0
 52 53  1  0  0  0  0
 52 90  1  0  0  0  0
 53 54  2  0  0  0  0
 55 56  2  0  0  0  0
M  END
$$$$
protac3895RUN2
  chem.cr 07102519423D
protac3895RUN2
 90 96  0  0  0  0  0  0  0  0999 V2000
    0.4807    2.7153   -0.2300 O   0  0  0  0  0  0  0  0  0  0  0  0
   -0.4104    2.1364   -0.8327 C   0  0  0  0  0  0  0  0  0  0  0  0
   -1.8079    2.7130   -0.9669 C   0  0  0  0  0  0  0  0  0  0  0  0
   -2.1352    3.1679   -2.3341 N   0  0  0  0  0  0  0  0  0  0  0  0
   -1.0430    3.5877   -3.1058 C   0  0  0  0  0  0  0  0  0  0  0  0
   -0.9576    2.8820   -4.2549 C   0  0  0  0  0  0  0  0  0  0  0  0
    0.1360    2.7541   -5.0693 C   0  0  0  0  0  0  0  0  0  0  0  0
    1.2861    3.4744   -4.9938 C   0  0  0  0  0  0  0  0  0  0  0  0
    1.5397    4.5254   -4.1339 C   0  0  0  0  0  0  0  0  0  0  0  0
    2.2626    4.3049   -2.9424 C   0  0  0  0  0  0  0  0  0  0  0  0
    2.4691    5.3592   -2.0332 C   0  0  0  0  0  0  0  0  0  0  0  0
    1.9660    6.6377   -2.3166 C   0  0  0  0  0  0  0  0  0  0  0  0
    2.2133    7.9550   -1.1763 Cl  0  0  0  0  0  0  0  0  0  0  0  0
    1.2617    6.8701   -3.5090 C   0  0  0  0  0  0  0  0  0  0  0  0
    1.0472    5.8172   -4.4151 C   0  0  0  0  0  0  0  0  0  0  0  0
    0.1332    6.1332   -5.8887 Cl  0  0  0  0  0  0  0  0  0  0  0  0
    2.1942    3.0627   -5.8777 C   0  0  0  0  0  0  0  0  0  0  0  0
    3.3405    3.4103   -6.1356 O   0  0  0  0  0  0  0  0  0  0  0  0
    1.6353    2.0283   -6.6014 N   0  0  0  0  0  0  0  0  0  0  0  0
    0.3720    1.8386   -6.0477 C   0  0  0  0  0  0  0  0  0  0  0  0
   -0.2250    0.8542   -6.4608 O   0  0  0  0  0  0  0  0  0  0  0  0
   -2.1794    2.1911   -4.3350 C   0  0  0  0  0  0  0  0  0  0  0  0
   -2.8404    1.5547   -5.4042 C   0  0  0  0  0  0  0  0  0  0  0  0
   -4.1120    0.9788   -5.1861 C   0  0  0  0  0  0  0  0  0  0  0  0
   -4.7634    1.1030   -3.9399 C   0  0  0  0  0  0  0  0  0  0  0  0
   -4.1571    1.8331   -2.9039 C   0  0  0  0  0  0  0  0  0  0  0  0
   -2.8810    2.3616   -3.1418 C   0  0  0  0  0  0  0  0  0  0  0  0
   -0.2483    0.7535   -0.9807 N   0  0  0  0  0  0  0  0  0  0  0  0
   -0.4081    0.0328   -2.2602 C   0  0  0  0  0  0  0  0  0  0  0  0
   -1.7347   -0.7564   -2.4219 C   0  0  0  0  0  0  0  0  0  0  0  0
   -2.3087   -0.9964   -1.1328 O   0  0  0  0  0  0  0  0  0  0  0  0
   -3.3289   -1.9954   -1.0788 C   0  0  0  0  0  0  0  0  0  0  0  0
   -3.5971   -2.3090    0.4108 C   0  0  0  0  0  0  0  0  0  0  0  0
   -2.6049   -3.2450    0.8892 O   0  0  0  0  0  0  0  0  0  0  0  0
   -1.5864   -2.7659    1.7950 C   0  0  0  0  0  0  0  0  0  0  0  0
   -0.6027   -1.8325    1.0517 C   0  0  0  0  0  0  0  0  0  0  0  0
    0.7447   -1.9260    1.6217 N   0  0  0  0  0  0  0  0  0  0  0  0
    1.2354   -1.0497    2.5776 C   0  0  0  0  0  0  0  0  0  0  0  0
    1.2308    0.3574    2.4372 C   0  0  0  0  0  0  0  0  0  0  0  0
    1.7961    1.1882    3.4360 C   0  0  0  0  0  0  0  0  0  0  0  0
    2.3541    0.6273    4.6066 C   0  0  0  0  0  0  0  0  0  0  0  0
    2.3242   -0.7679    4.7395 C   0  0  0  0  0  0  0  0  0  0  0  0
    1.7948   -1.5767    3.7395 C   0  0  0  0  0  0  0  0  0  0  0  0
    1.8990   -2.8833    4.1426 C   0  0  0  0  0  0  0  0  0  0  0  0
    1.6201   -3.8977    3.5115 O   0  0  0  0  0  0  0  0  0  0  0  0
    2.5098   -2.9174    5.3986 N   0  0  0  0  0  0  0  0  0  0  0  0
    2.3505   -4.0282    6.3556 C   0  0  0  0  0  0  0  0  0  0  0  0
    3.2592   -5.2098    5.9364 C   0  0  0  0  0  0  0  0  0  0  0  0
    2.8968   -6.4824    6.7310 C   0  0  0  0  0  0  0  0  0  0  0  0
    1.4313   -6.8142    6.5699 C   0  0  0  0  0  0  0  0  0  0  0  0
    0.9893   -7.9540    6.6099 O   0  0  0  0  0  0  0  0  0  0  0  0
    0.5088   -5.7652    6.6016 N   0  0  0  0  0  0  0  0  0  0  0  0
    0.8811   -4.4148    6.5138 C   0  0  0  0  0  0  0  0  0  0  0  0
   -0.0139   -3.6010    6.7024 O   0  0  0  0  0  0  0  0  0  0  0  0
    2.7508   -1.5846    5.7629 C   0  0  0  0  0  0  0  0  0  0  0  0
    3.3693   -1.2807    6.7768 O   0  0  0  0  0  0  0  0  0  0  0  0
   -2.5306    1.9522   -0.6520 H   0  0  0  0  0  0  0  0  0  0  0  0
   -1.9049    3.5706   -0.2913 H   0  0  0  0  0  0  0  0  0  0  0  0
   -0.3124    4.2179   -2.6125 H   0  0  0  0  0  0  0  0  0  0  0  0
    2.6377    3.3116   -2.7091 H   0  0  0  0  0  0  0  0  0  0  0  0
    3.0093    5.1813   -1.1061 H   0  0  0  0  0  0  0  0  0  0  0  0
    0.8762    7.8629   -3.7287 H   0  0  0  0  0  0  0  0  0  0  0  0
    2.1291    1.3882   -7.2030 H   0  0  0  0  0  0  0  0  0  0  0  0
   -2.4322    1.5419   -6.4043 H   0  0  0  0  0  0  0  0  0  0  0  0
   -4.6107    0.4606   -5.9996 H   0  0  0  0  0  0  0  0  0  0  0  0
   -5.7507    0.6736   -3.7934 H   0  0  0  0  0  0  0  0  0  0  0  0
   -4.6642    1.9935   -1.9576 H   0  0  0  0  0  0  0  0  0  0  0  0
    0.3373    0.3087   -0.2861 H   0  0  0  0  0  0  0  0  0  0  0  0
    0.4239   -0.6779   -2.3496 H   0  0  0  0  0  0  0  0  0  0  0  0
   -0.3025    0.7291   -3.0982 H   0  0  0  0  0  0  0  0  0  0  0  0
   -1.5255   -1.7017   -2.9396 H   0  0  0  0  0  0  0  0  0  0  0  0
   -2.4321   -0.1955   -3.0511 H   0  0  0  0  0  0  0  0  0  0  0  0
   -3.0128   -2.9165   -1.5868 H   0  0  0  0  0  0  0  0  0  0  0  0
   -4.2492   -1.6303   -1.5549 H   0  0  0  0  0  0  0  0  0  0  0  0
   -4.5868   -2.7759    0.4883 H   0  0  0  0  0  0  0  0  0  0  0  0
   -3.6178   -1.3851    1.0054 H   0  0  0  0  0  0  0  0  0  0  0  0
   -2.0249   -2.2424    2.6555 H   0  0  0  0  0  0  0  0  0  0  0  0
   -1.0337   -3.6297    2.1909 H   0  0  0  0  0  0  0  0  0  0  0  0
   -0.5466   -2.1455    0.0018 H   0  0  0  0  0  0  0  0  0  0  0  0
   -0.9814   -0.8037    1.0959 H   0  0  0  0  0  0  0  0  0  0  0  0
    1.0830   -2.8752    1.7541 H   0  0  0  0  0  0  0  0  0  0  0  0
    0.8127    0.8174    1.5511 H   0  0  0  0  0  0  0  0  0  0  0  0
    1.8035    2.2672    3.3045 H   0  0  0  0  0  0  0  0  0  0  0  0
    2.7921    1.2464    5.3848 H   0  0  0  0  0  0  0  0  0  0  0  0
    2.6851   -3.6784    7.3399 H   0  0  0  0  0  0  0  0  0  0  0  0
    4.3146   -4.9414    6.0755 H   0  0  0  0  0  0  0  0  0  0  0  0
    3.1297   -5.4173    4.8666 H   0  0  0  0  0  0  0  0  0  0  0  0
    3.4997   -7.3287    6.3749 H   0  0  0  0  0  0  0  0  0  0  0  0
    3.1230   -6.3463    7.7963 H   0  0  0  0  0  0  0  0  0  0  0  0
   -0.4735   -5.9872    6.6387 H   0  0  0  0  0  0  0  0  0  0  0  0
  1  2  2  0  0  0  0
  2  3  1  0  0  0  0
  2 28  1  0  0  0  0
  3  4  1  0  0  0  0
  3 57  1  0  0  0  0
  3 58  1  0  0  0  0
  4  5  1  0  0  0  0
  4 27  1  0  0  0  0
  5  6  2  0  0  0  0
  5 59  1  0  0  0  0
  6  7  1  0  0  0  0
  6 22  1  0  0  0  0
  7  8  2  0  0  0  0
  7 20  1  0  0  0  0
  8  9  1  0  0  0  0
  8 17  1  0  0  0  0
  9 10  2  0  0  0  0
  9 15  1  0  0  0  0
 10 11  1  0  0  0  0
 10 60  1  0  0  0  0
 11 12  2  0  0  0  0
 11 61  1  0  0  0  0
 12 13  1  0  0  0  0
 12 14  1  0  0  0  0
 14 15  2  0  0  0  0
 14 62  1  0  0  0  0
 15 16  1  0  0  0  0
 17 18  2  0  0  0  0
 17 19  1  0  0  0  0
 19 20  1  0  0  0  0
 19 63  1  0  0  0  0
 20 21  2  0  0  0  0
 22 23  2  0  0  0  0
 22 27  1  0  0  0  0
 23 24  1  0  0  0  0
 23 64  1  0  0  0  0
 24 25  2  0  0  0  0
 24 65  1  0  0  0  0
 25 26  1  0  0  0  0
 25 66  1  0  0  0  0
 26 27  2  0  0  0  0
 26 67  1  0  0  0  0
 28 29  1  0  0  0  0
 28 68  1  0  0  0  0
 29 30  1  0  0  0  0
 29 69  1  0  0  0  0
 29 70  1  0  0  0  0
 30 31  1  0  0  0  0
 30 71  1  0  0  0  0
 30 72  1  0  0  0  0
 31 32  1  0  0  0  0
 32 33  1  0  0  0  0
 32 73  1  0  0  0  0
 32 74  1  0  0  0  0
 33 34  1  0  0  0  0
 33 75  1  0  0  0  0
 33 76  1  0  0  0  0
 34 35  1  0  0  0  0
 35 36  1  0  0  0  0
 35 77  1  0  0  0  0
 35 78  1  0  0  0  0
 36 37  1  0  0  0  0
 36 79  1  0  0  0  0
 36 80  1  0  0  0  0
 37 38  1  0  0  0  0
 37 81  1  0  0  0  0
 38 39  2  0  0  0  0
 38 43  1  0  0  0  0
 39 40  1  0  0  0  0
 39 82  1  0  0  0  0
 40 41  2  0  0  0  0
 40 83  1  0  0  0  0
 41 42  1  0  0  0  0
 41 84  1  0  0  0  0
 42 43  2  0  0  0  0
 42 55  1  0  0  0  0
 43 44  1  0  0  0  0
 44 45  2  0  0  0  0
 44 46  1  0  0  0  0
 46 47  1  0  0  0  0
 46 55  1  0  0  0  0
 47 48  1  0  0  0  0
 47 53  1  0  0  0  0
 47 85  1  0  0  0  0
 48 49  1  0  0  0  0
 48 86  1  0  0  0  0
 48 87  1  0  0  0  0
 49 50  1  0  0  0  0
 49 88  1  0  0  0  0
 49 89  1  0  0  0  0
 50 51  2  0  0  0  0
 50 52  1  0  0  0  0
 52 53  1  0  0  0  0
 52 90  1  0  0  0  0
 53 54  2  0  0  0  0
 55 56  2  0  0  0  0
M  END
$$$$
protac3895RUN2
  chem.cr 07102519423D
protac3895RUN2
 90 96  0  0  0  0  0  0  0  0999 V2000
   -3.0147    2.5389    0.8126 O   0  0  0  0  0  0  0  0  0  0  0  0
   -2.5022    2.3063   -0.2732 C   0  0  0  0  0  0  0  0  0  0  0  0
   -1.6545    3.3216   -1.0169 C   0  0  0  0  0  0  0  0  0  0  0  0
   -1.4395    3.0549   -2.4595 N   0  0  0  0  0  0  0  0  0  0  0  0
   -0.2001    3.0695   -3.0931 C   0  0  0  0  0  0  0  0  0  0  0  0
   -0.3065    2.7441   -4.4084 C   0  0  0  0  0  0  0  0  0  0  0  0
    0.7351    2.6907   -5.3282 C   0  0  0  0  0  0  0  0  0  0  0  0
    2.0448    2.9682   -5.0630 C   0  0  0  0  0  0  0  0  0  0  0  0
    2.5986    3.3605   -3.8614 C   0  0  0  0  0  0  0  0  0  0  0  0
    3.1102    2.3824   -2.9860 C   0  0  0  0  0  0  0  0  0  0  0  0
    3.6583    2.7571   -1.7463 C   0  0  0  0  0  0  0  0  0  0  0  0
    3.7107    4.1139   -1.3885 C   0  0  0  0  0  0  0  0  0  0  0  0
    4.4008    4.5827    0.1584 Cl  0  0  0  0  0  0  0  0  0  0  0  0
    3.2287    5.0987   -2.2687 C   0  0  0  0  0  0  0  0  0  0  0  0
    2.6716    4.7247   -3.5049 C   0  0  0  0  0  0  0  0  0  0  0  0
    2.0695    5.9758   -4.5929 Cl  0  0  0  0  0  0  0  0  0  0  0  0
    2.8260    2.8366   -6.1316 C   0  0  0  0  0  0  0  0  0  0  0  0
    4.0250    2.9831   -6.3325 O   0  0  0  0  0  0  0  0  0  0  0  0
    2.0295    2.4641   -7.1870 N   0  0  0  0  0  0  0  0  0  0  0  0
    0.7500    2.3621   -6.6526 C   0  0  0  0  0  0  0  0  0  0  0  0
   -0.0661    1.9937   -7.4763 O   0  0  0  0  0  0  0  0  0  0  0  0
   -1.7014    2.5251   -4.5991 C   0  0  0  0  0  0  0  0  0  0  0  0
   -2.5017    2.1564   -5.7087 C   0  0  0  0  0  0  0  0  0  0  0  0
   -3.8984    2.0314   -5.5699 C   0  0  0  0  0  0  0  0  0  0  0  0
   -4.5399    2.2988   -4.3473 C   0  0  0  0  0  0  0  0  0  0  0  0
   -3.7743    2.6698   -3.2336 C   0  0  0  0  0  0  0  0  0  0  0  0
   -2.3822    2.7503   -3.3895 C   0  0  0  0  0  0  0  0  0  0  0  0
   -2.5904    1.0080   -0.8015 N   0  0  0  0  0  0  0  0  0  0  0  0
   -3.6656    0.0612   -0.4436 C   0  0  0  0  0  0  0  0  0  0  0  0
   -3.3946   -0.6970    0.8678 C   0  0  0  0  0  0  0  0  0  0  0  0
   -3.9186   -2.0240    0.6899 O   0  0  0  0  0  0  0  0  0  0  0  0
   -3.3036   -3.0927    1.4486 C   0  0  0  0  0  0  0  0  0  0  0  0
   -1.8017   -3.2195    1.0778 C   0  0  0  0  0  0  0  0  0  0  0  0
   -1.6830   -3.0996   -0.3559 O   0  0  0  0  0  0  0  0  0  0  0  0
   -0.3685   -3.0215   -0.9366 C   0  0  0  0  0  0  0  0  0  0  0  0
    0.2547   -1.6270   -0.6788 C   0  0  0  0  0  0  0  0  0  0  0  0
    0.9964   -1.5914    0.5950 N   0  0  0  0  0  0  0  0  0  0  0  0
    0.6450   -0.7782    1.6654 C   0  0  0  0  0  0  0  0  0  0  0  0
    0.1287    0.5285    1.5024 C   0  0  0  0  0  0  0  0  0  0  0  0
   -0.2856    1.2967    2.6194 C   0  0  0  0  0  0  0  0  0  0  0  0
   -0.1799    0.7767    3.9255 C   0  0  0  0  0  0  0  0  0  0  0  0
    0.3523   -0.5092    4.0777 C   0  0  0  0  0  0  0  0  0  0  0  0
    0.7578   -1.2624    2.9752 C   0  0  0  0  0  0  0  0  0  0  0  0
    1.2341   -2.4676    3.4401 C   0  0  0  0  0  0  0  0  0  0  0  0
    1.3919   -3.4979    2.7964 O   0  0  0  0  0  0  0  0  0  0  0  0
    1.1640   -2.4548    4.8445 N   0  0  0  0  0  0  0  0  0  0  0  0
    1.8181   -3.3863    5.7958 C   0  0  0  0  0  0  0  0  0  0  0  0
    3.1162   -4.0207    5.2563 C   0  0  0  0  0  0  0  0  0  0  0  0
    3.7869   -4.8326    6.3854 C   0  0  0  0  0  0  0  0  0  0  0  0
    2.8297   -5.7855    7.0757 C   0  0  0  0  0  0  0  0  0  0  0  0
    3.2055   -6.7233    7.7617 O   0  0  0  0  0  0  0  0  0  0  0  0
    1.4531   -5.5182    7.0616 N   0  0  0  0  0  0  0  0  0  0  0  0
    0.8880   -4.4798    6.3073 C   0  0  0  0  0  0  0  0  0  0  0  0
   -0.3328   -4.3924    6.3361 O   0  0  0  0  0  0  0  0  0  0  0  0
    0.5740   -1.2418    5.2187 C   0  0  0  0  0  0  0  0  0  0  0  0
    0.6074   -0.8330    6.3763 O   0  0  0  0  0  0  0  0  0  0  0  0
   -2.1319    4.3065   -0.9231 H   0  0  0  0  0  0  0  0  0  0  0  0
   -0.6819    3.3807   -0.5136 H   0  0  0  0  0  0  0  0  0  0  0  0
    0.6550    3.3426   -2.4911 H   0  0  0  0  0  0  0  0  0  0  0  0
    3.0740    1.3335   -3.2709 H   0  0  0  0  0  0  0  0  0  0  0  0
    4.0531    1.9994   -1.0718 H   0  0  0  0  0  0  0  0  0  0  0  0
    3.2927    6.1491   -1.9975 H   0  0  0  0  0  0  0  0  0  0  0  0
    2.3447    2.0422   -8.0460 H   0  0  0  0  0  0  0  0  0  0  0  0
   -2.1204    1.9598   -6.6898 H   0  0  0  0  0  0  0  0  0  0  0  0
   -4.4916    1.7309   -6.4290 H   0  0  0  0  0  0  0  0  0  0  0  0
   -5.6223    2.2211   -4.2678 H   0  0  0  0  0  0  0  0  0  0  0  0
   -4.2524    2.8766   -2.2803 H   0  0  0  0  0  0  0  0  0  0  0  0
   -2.1164    0.8490   -1.6820 H   0  0  0  0  0  0  0  0  0  0  0  0
   -3.7703   -0.6710   -1.2560 H   0  0  0  0  0  0  0  0  0  0  0  0
   -4.6210    0.5948   -0.3560 H   0  0  0  0  0  0  0  0  0  0  0  0
   -3.8761   -0.1849    1.7111 H   0  0  0  0  0  0  0  0  0  0  0  0
   -2.3158   -0.7032    1.0413 H   0  0  0  0  0  0  0  0  0  0  0  0
   -3.7971   -4.0451    1.2204 H   0  0  0  0  0  0  0  0  0  0  0  0
   -3.4112   -2.9155    2.5274 H   0  0  0  0  0  0  0  0  0  0  0  0
   -1.4105   -4.1858    1.4265 H   0  0  0  0  0  0  0  0  0  0  0  0
   -1.2600   -2.4352    1.6071 H   0  0  0  0  0  0  0  0  0  0  0  0
    0.2871   -3.8283   -0.5854 H   0  0  0  0  0  0  0  0  0  0  0  0
   -0.4788   -3.1430   -2.0229 H   0  0  0  0  0  0  0  0  0  0  0  0
    0.9436   -1.3866   -1.4991 H   0  0  0  0  0  0  0  0  0  0  0  0
   -0.5462   -0.8806   -0.6938 H   0  0  0  0  0  0  0  0  0  0  0  0
    1.4318   -2.4651    0.8755 H   0  0  0  0  0  0  0  0  0  0  0  0
    0.0373    0.9579    0.5127 H   0  0  0  0  0  0  0  0  0  0  0  0
   -0.7047    2.2924    2.4727 H   0  0  0  0  0  0  0  0  0  0  0  0
   -0.5040    1.3512    4.7908 H   0  0  0  0  0  0  0  0  0  0  0  0
    2.0923   -2.7928    6.6774 H   0  0  0  0  0  0  0  0  0  0  0  0
    3.7945   -3.2476    4.8784 H   0  0  0  0  0  0  0  0  0  0  0  0
    2.8848   -4.6859    4.4181 H   0  0  0  0  0  0  0  0  0  0  0  0
    4.6280   -5.4059    5.9788 H   0  0  0  0  0  0  0  0  0  0  0  0
    4.2056   -4.1518    7.1356 H   0  0  0  0  0  0  0  0  0  0  0  0
    0.8335   -6.1367    7.5664 H   0  0  0  0  0  0  0  0  0  0  0  0
  1  2  2  0  0  0  0
  2  3  1  0  0  0  0
  2 28  1  0  0  0  0
  3  4  1  0  0  0  0
  3 57  1  0  0  0  0
  3 58  1  0  0  0  0
  4  5  1  0  0  0  0
  4 27  1  0  0  0  0
  5  6  2  0  0  0  0
  5 59  1  0  0  0  0
  6  7  1  0  0  0  0
  6 22  1  0  0  0  0
  7  8  2  0  0  0  0
  7 20  1  0  0  0  0
  8  9  1  0  0  0  0
  8 17  1  0  0  0  0
  9 10  2  0  0  0  0
  9 15  1  0  0  0  0
 10 11  1  0  0  0  0
 10 60  1  0  0  0  0
 11 12  2  0  0  0  0
 11 61  1  0  0  0  0
 12 13  1  0  0  0  0
 12 14  1  0  0  0  0
 14 15  2  0  0  0  0
 14 62  1  0  0  0  0
 15 16  1  0  0  0  0
 17 18  2  0  0  0  0
 17 19  1  0  0  0  0
 19 20  1  0  0  0  0
 19 63  1  0  0  0  0
 20 21  2  0  0  0  0
 22 23  2  0  0  0  0
 22 27  1  0  0  0  0
 23 24  1  0  0  0  0
 23 64  1  0  0  0  0
 24 25  2  0  0  0  0
 24 65  1  0  0  0  0
 25 26  1  0  0  0  0
 25 66  1  0  0  0  0
 26 27  2  0  0  0  0
 26 67  1  0  0  0  0
 28 29  1  0  0  0  0
 28 68  1  0  0  0  0
 29 30  1  0  0  0  0
 29 69  1  0  0  0  0
 29 70  1  0  0  0  0
 30 31  1  0  0  0  0
 30 71  1  0  0  0  0
 30 72  1  0  0  0  0
 31 32  1  0  0  0  0
 32 33  1  0  0  0  0
 32 73  1  0  0  0  0
 32 74  1  0  0  0  0
 33 34  1  0  0  0  0
 33 75  1  0  0  0  0
 33 76  1  0  0  0  0
 34 35  1  0  0  0  0
 35 36  1  0  0  0  0
 35 77  1  0  0  0  0
 35 78  1  0  0  0  0
 36 37  1  0  0  0  0
 36 79  1  0  0  0  0
 36 80  1  0  0  0  0
 37 38  1  0  0  0  0
 37 81  1  0  0  0  0
 38 39  2  0  0  0  0
 38 43  1  0  0  0  0
 39 40  1  0  0  0  0
 39 82  1  0  0  0  0
 40 41  2  0  0  0  0
 40 83  1  0  0  0  0
 41 42  1  0  0  0  0
 41 84  1  0  0  0  0
 42 43  2  0  0  0  0
 42 55  1  0  0  0  0
 43 44  1  0  0  0  0
 44 45  2  0  0  0  0
 44 46  1  0  0  0  0
 46 47  1  0  0  0  0
 46 55  1  0  0  0  0
 47 48  1  0  0  0  0
 47 53  1  0  0  0  0
 47 85  1  0  0  0  0
 48 49  1  0  0  0  0
 48 86  1  0  0  0  0
 48 87  1  0  0  0  0
 49 50  1  0  0  0  0
 49 88  1  0  0  0  0
 49 89  1  0  0  0  0
 50 51  2  0  0  0  0
 50 52  1  0  0  0  0
 52 53  1  0  0  0  0
 52 90  1  0  0  0  0
 53 54  2  0  0  0  0
 55 56  2  0  0  0  0
M  END
$$$$
protac3895RUN2
  chem.cr 07102519423D
protac3895RUN2
 90 96  0  0  0  0  0  0  0  0999 V2000
   -2.0224    3.2218   -0.5948 O   0  0  0  0  0  0  0  0  0  0  0  0
   -1.8804    3.2990   -1.8083 C   0  0  0  0  0  0  0  0  0  0  0  0
   -1.2379    4.4855   -2.4947 C   0  0  0  0  0  0  0  0  0  0  0  0
   -0.5596    4.1789   -3.7718 N   0  0  0  0  0  0  0  0  0  0  0  0
    0.7447    3.6794   -3.8305 C   0  0  0  0  0  0  0  0  0  0  0  0
    0.9981    3.1468   -5.0486 C   0  0  0  0  0  0  0  0  0  0  0  0
    2.2093    2.7314   -5.5398 C   0  0  0  0  0  0  0  0  0  0  0  0
    3.3430    2.5376   -4.8176 C   0  0  0  0  0  0  0  0  0  0  0  0
    3.4716    2.6371   -3.4468 C   0  0  0  0  0  0  0  0  0  0  0  0
    2.9981    1.5901   -2.6320 C   0  0  0  0  0  0  0  0  0  0  0  0
    3.1091    1.6737   -1.2330 C   0  0  0  0  0  0  0  0  0  0  0  0
    3.7031    2.8012   -0.6431 C   0  0  0  0  0  0  0  0  0  0  0  0
    3.8672    2.8972    1.1056 Cl  0  0  0  0  0  0  0  0  0  0  0  0
    4.1845    3.8460   -1.4488 C   0  0  0  0  0  0  0  0  0  0  0  0
    4.0709    3.7670   -2.8475 C   0  0  0  0  0  0  0  0  0  0  0  0
    4.6692    5.1026   -3.8326 Cl  0  0  0  0  0  0  0  0  0  0  0  0
    4.3675    2.1575   -5.5827 C   0  0  0  0  0  0  0  0  0  0  0  0
    5.5278    1.8462   -5.3486 O   0  0  0  0  0  0  0  0  0  0  0  0
    3.9224    2.1242   -6.8877 N   0  0  0  0  0  0  0  0  0  0  0  0
    2.5762    2.4732   -6.8236 C   0  0  0  0  0  0  0  0  0  0  0  0
    2.0254    2.5711   -7.9115 O   0  0  0  0  0  0  0  0  0  0  0  0
   -0.2339    3.1919   -5.7323 C   0  0  0  0  0  0  0  0  0  0  0  0
   -0.7025    2.5063   -6.8745 C   0  0  0  0  0  0  0  0  0  0  0  0
   -2.0423    2.6756   -7.2861 C   0  0  0  0  0  0  0  0  0  0  0  0
   -2.9348    3.4717   -6.5394 C   0  0  0  0  0  0  0  0  0  0  0  0
   -2.5088    4.0598   -5.3367 C   0  0  0  0  0  0  0  0  0  0  0  0
   -1.1721    3.8798   -4.9573 C   0  0  0  0  0  0  0  0  0  0  0  0
   -2.5732    2.4028   -2.6347 N   0  0  0  0  0  0  0  0  0  0  0  0
   -3.7136    1.5867   -2.1938 C   0  0  0  0  0  0  0  0  0  0  0  0
   -3.2921    0.1327   -1.9101 C   0  0  0  0  0  0  0  0  0  0  0  0
   -4.4644   -0.7035   -1.8373 O   0  0  0  0  0  0  0  0  0  0  0  0
   -5.4324   -0.4686   -0.7886 C   0  0  0  0  0  0  0  0  0  0  0  0
   -4.7930   -0.6575    0.6067 C   0  0  0  0  0  0  0  0  0  0  0  0
   -4.3019   -2.0067    0.6922 O   0  0  0  0  0  0  0  0  0  0  0  0
   -3.5851   -2.3592    1.8873 C   0  0  0  0  0  0  0  0  0  0  0  0
   -2.2356   -1.6137    1.8908 C   0  0  0  0  0  0  0  0  0  0  0  0
   -1.3339   -2.1362    2.9278 N   0  0  0  0  0  0  0  0  0  0  0  0
   -0.1114   -1.5660    3.2669 C   0  0  0  0  0  0  0  0  0  0  0  0
    0.3605   -0.3596    2.6890 C   0  0  0  0  0  0  0  0  0  0  0  0
    1.6077    0.1948    3.0678 C   0  0  0  0  0  0  0  0  0  0  0  0
    2.4170   -0.4478    4.0254 C   0  0  0  0  0  0  0  0  0  0  0  0
    1.9423   -1.6389    4.5875 C   0  0  0  0  0  0  0  0  0  0  0  0
    0.7105   -2.1844    4.2190 C   0  0  0  0  0  0  0  0  0  0  0  0
    0.5273   -3.3480    4.9338 C   0  0  0  0  0  0  0  0  0  0  0  0
   -0.2541   -4.2605    4.6876 O   0  0  0  0  0  0  0  0  0  0  0  0
    1.6618   -3.5447    5.7327 N   0  0  0  0  0  0  0  0  0  0  0  0
    1.8430   -4.5824    6.7657 C   0  0  0  0  0  0  0  0  0  0  0  0
    2.2459   -5.9204    6.1142 C   0  0  0  0  0  0  0  0  0  0  0  0
    2.4290   -6.9923    7.2096 C   0  0  0  0  0  0  0  0  0  0  0  0
    1.2158   -7.0983    8.1075 C   0  0  0  0  0  0  0  0  0  0  0  0
    0.9740   -8.0838    8.7875 O   0  0  0  0  0  0  0  0  0  0  0  0
    0.4826   -5.9398    8.3911 N   0  0  0  0  0  0  0  0  0  0  0  0
    0.6330   -4.7389    7.6807 C   0  0  0  0  0  0  0  0  0  0  0  0
   -0.0145   -3.7930    8.1086 O   0  0  0  0  0  0  0  0  0  0  0  0
    2.5176   -2.4598    5.5277 C   0  0  0  0  0  0  0  0  0  0  0  0
    3.6727   -2.4494    5.9394 O   0  0  0  0  0  0  0  0  0  0  0  0
   -2.0095    5.2405   -2.6806 H   0  0  0  0  0  0  0  0  0  0  0  0
   -0.5095    4.9319   -1.8085 H   0  0  0  0  0  0  0  0  0  0  0  0
    1.4068    3.8795   -2.9936 H   0  0  0  0  0  0  0  0  0  0  0  0
    2.5512    0.7096   -3.0881 H   0  0  0  0  0  0  0  0  0  0  0  0
    2.7443    0.8630   -0.6084 H   0  0  0  0  0  0  0  0  0  0  0  0
    4.6529    4.7136   -0.9929 H   0  0  0  0  0  0  0  0  0  0  0  0
    4.3961    1.7052   -7.6721 H   0  0  0  0  0  0  0  0  0  0  0  0
   -0.0872    1.8051   -7.4202 H   0  0  0  0  0  0  0  0  0  0  0  0
   -2.3954    2.1672   -8.1793 H   0  0  0  0  0  0  0  0  0  0  0  0
   -3.9634    3.5906   -6.8702 H   0  0  0  0  0  0  0  0  0  0  0  0
   -3.2027    4.6147   -4.7138 H   0  0  0  0  0  0  0  0  0  0  0  0
   -2.3288    2.4071   -3.6211 H   0  0  0  0  0  0  0  0  0  0  0  0
   -4.4758    1.5907   -2.9844 H   0  0  0  0  0  0  0  0  0  0  0  0
   -4.1571    2.0302   -1.2920 H   0  0  0  0  0  0  0  0  0  0  0  0
   -2.6921    0.0803   -0.9937 H   0  0  0  0  0  0  0  0  0  0  0  0
   -2.6556   -0.2184   -2.7325 H   0  0  0  0  0  0  0  0  0  0  0  0
   -6.2588   -1.1844   -0.8928 H   0  0  0  0  0  0  0  0  0  0  0  0
   -5.8605    0.5388   -0.8655 H   0  0  0  0  0  0  0  0  0  0  0  0
   -5.5574   -0.4851    1.3759 H   0  0  0  0  0  0  0  0  0  0  0  0
   -3.9975    0.0818    0.7493 H   0  0  0  0  0  0  0  0  0  0  0  0
   -4.1654   -2.1112    2.7852 H   0  0  0  0  0  0  0  0  0  0  0  0
   -3.4007   -3.4415    1.8956 H   0  0  0  0  0  0  0  0  0  0  0  0
   -1.7656   -1.7290    0.9051 H   0  0  0  0  0  0  0  0  0  0  0  0
   -2.4146   -0.5462    2.0691 H   0  0  0  0  0  0  0  0  0  0  0  0
   -1.5670   -3.0099    3.3916 H   0  0  0  0  0  0  0  0  0  0  0  0
   -0.2320    0.1617    1.9440 H   0  0  0  0  0  0  0  0  0  0  0  0
    1.9433    1.1252    2.6182 H   0  0  0  0  0  0  0  0  0  0  0  0
    3.3763   -0.0328    4.3265 H   0  0  0  0  0  0  0  0  0  0  0  0
    2.6680   -4.2598    7.4134 H   0  0  0  0  0  0  0  0  0  0  0  0
    3.1696   -5.7920    5.5346 H   0  0  0  0  0  0  0  0  0  0  0  0
    1.4624   -6.2365    5.4101 H   0  0  0  0  0  0  0  0  0  0  0  0
    2.6302   -7.9684    6.7511 H   0  0  0  0  0  0  0  0  0  0  0  0
    3.3026   -6.7522    7.8271 H   0  0  0  0  0  0  0  0  0  0  0  0
   -0.2387   -5.9898    9.0947 H   0  0  0  0  0  0  0  0  0  0  0  0
  1  2  2  0  0  0  0
  2  3  1  0  0  0  0
  2 28  1  0  0  0  0
  3  4  1  0  0  0  0
  3 57  1  0  0  0  0
  3 58  1  0  0  0  0
  4  5  1  0  0  0  0
  4 27  1  0  0  0  0
  5  6  2  0  0  0  0
  5 59  1  0  0  0  0
  6  7  1  0  0  0  0
  6 22  1  0  0  0  0
  7  8  2  0  0  0  0
  7 20  1  0  0  0  0
  8  9  1  0  0  0  0
  8 17  1  0  0  0  0
  9 10  2  0  0  0  0
  9 15  1  0  0  0  0
 10 11  1  0  0  0  0
 10 60  1  0  0  0  0
 11 12  2  0  0  0  0
 11 61  1  0  0  0  0
 12 13  1  0  0  0  0
 12 14  1  0  0  0  0
 14 15  2  0  0  0  0
 14 62  1  0  0  0  0
 15 16  1  0  0  0  0
 17 18  2  0  0  0  0
 17 19  1  0  0  0  0
 19 20  1  0  0  0  0
 19 63  1  0  0  0  0
 20 21  2  0  0  0  0
 22 23  2  0  0  0  0
 22 27  1  0  0  0  0
 23 24  1  0  0  0  0
 23 64  1  0  0  0  0
 24 25  2  0  0  0  0
 24 65  1  0  0  0  0
 25 26  1  0  0  0  0
 25 66  1  0  0  0  0
 26 27  2  0  0  0  0
 26 67  1  0  0  0  0
 28 29  1  0  0  0  0
 28 68  1  0  0  0  0
 29 30  1  0  0  0  0
 29 69  1  0  0  0  0
 29 70  1  0  0  0  0
 30 31  1  0  0  0  0
 30 71  1  0  0  0  0
 30 72  1  0  0  0  0
 31 32  1  0  0  0  0
 32 33  1  0  0  0  0
 32 73  1  0  0  0  0
 32 74  1  0  0  0  0
 33 34  1  0  0  0  0
 33 75  1  0  0  0  0
 33 76  1  0  0  0  0
 34 35  1  0  0  0  0
 35 36  1  0  0  0  0
 35 77  1  0  0  0  0
 35 78  1  0  0  0  0
 36 37  1  0  0  0  0
 36 79  1  0  0  0  0
 36 80  1  0  0  0  0
 37 38  1  0  0  0  0
 37 81  1  0  0  0  0
 38 39  2  0  0  0  0
 38 43  1  0  0  0  0
 39 40  1  0  0  0  0
 39 82  1  0  0  0  0
 40 41  2  0  0  0  0
 40 83  1  0  0  0  0
 41 42  1  0  0  0  0
 41 84  1  0  0  0  0
 42 43  2  0  0  0  0
 42 55  1  0  0  0  0
 43 44  1  0  0  0  0
 44 45  2  0  0  0  0
 44 46  1  0  0  0  0
 46 47  1  0  0  0  0
 46 55  1  0  0  0  0
 47 48  1  0  0  0  0
 47 53  1  0  0  0  0
 47 85  1  0  0  0  0
 48 49  1  0  0  0  0
 48 86  1  0  0  0  0
 48 87  1  0  0  0  0
 49 50  1  0  0  0  0
 49 88  1  0  0  0  0
 49 89  1  0  0  0  0
 50 51  2  0  0  0  0
 50 52  1  0  0  0  0
 52 53  1  0  0  0  0
 52 90  1  0  0  0  0
 53 54  2  0  0  0  0
 55 56  2  0  0  0  0
M  END
$$$$
protac3895RUN2
  chem.cr 07102519423D
protac3895RUN2
 90 96  0  0  0  0  0  0  0  0999 V2000
   -0.1479    5.1746   -1.6029 O   0  0  0  0  0  0  0  0  0  0  0  0
   -0.0134    4.1960   -2.3216 C   0  0  0  0  0  0  0  0  0  0  0  0
    1.2721    3.9242   -3.0754 C   0  0  0  0  0  0  0  0  0  0  0  0
    2.5051    4.1034   -2.2790 N   0  0  0  0  0  0  0  0  0  0  0  0
    3.6263    4.7118   -2.8650 C   0  0  0  0  0  0  0  0  0  0  0  0
    4.7825    4.1624   -2.4231 C   0  0  0  0  0  0  0  0  0  0  0  0
    6.0630    4.5898   -2.6697 C   0  0  0  0  0  0  0  0  0  0  0  0
    6.4337    5.5380   -3.5671 C   0  0  0  0  0  0  0  0  0  0  0  0
    5.6159    6.2320   -4.4383 C   0  0  0  0  0  0  0  0  0  0  0  0
    5.2964    7.5762   -4.1617 C   0  0  0  0  0  0  0  0  0  0  0  0
    4.5025    8.3173   -5.0543 C   0  0  0  0  0  0  0  0  0  0  0  0
    4.0347    7.7192   -6.2357 C   0  0  0  0  0  0  0  0  0  0  0  0
    3.0812    8.6614   -7.3753 Cl  0  0  0  0  0  0  0  0  0  0  0  0
    4.3391    6.3769   -6.5156 C   0  0  0  0  0  0  0  0  0  0  0  0
    5.1286    5.6321   -5.6216 C   0  0  0  0  0  0  0  0  0  0  0  0
    5.5051    3.9526   -6.0080 Cl  0  0  0  0  0  0  0  0  0  0  0  0
    7.7464    5.7668   -3.5391 C   0  0  0  0  0  0  0  0  0  0  0  0
    8.4779    6.5370   -4.1480 O   0  0  0  0  0  0  0  0  0  0  0  0
    8.3119    4.9237   -2.6045 N   0  0  0  0  0  0  0  0  0  0  0  0
    7.2258    4.2446   -2.0542 C   0  0  0  0  0  0  0  0  0  0  0  0
    7.5106    3.5621   -1.0801 O   0  0  0  0  0  0  0  0  0  0  0  0
    4.3781    3.0974   -1.5962 C   0  0  0  0  0  0  0  0  0  0  0  0
    5.0657    1.9775   -1.0799 C   0  0  0  0  0  0  0  0  0  0  0  0
    4.3667    1.0339   -0.2958 C   0  0  0  0  0  0  0  0  0  0  0  0
    2.9801    1.1626   -0.0718 C   0  0  0  0  0  0  0  0  0  0  0  0
    2.2670    2.2036   -0.6892 C   0  0  0  0  0  0  0  0  0  0  0  0
    2.9871    3.1220   -1.4603 C   0  0  0  0  0  0  0  0  0  0  0  0
   -1.1726    3.8584   -3.0285 N   0  0  0  0  0  0  0  0  0  0  0  0
   -1.9518    2.6494   -2.7093 C   0  0  0  0  0  0  0  0  0  0  0  0
   -1.2208    1.3392   -3.0477 C   0  0  0  0  0  0  0  0  0  0  0  0
   -0.7597    0.7817   -1.8140 O   0  0  0  0  0  0  0  0  0  0  0  0
    0.1254   -0.3372   -1.9396 C   0  0  0  0  0  0  0  0  0  0  0  0
    0.0786   -1.1284   -0.6168 C   0  0  0  0  0  0  0  0  0  0  0  0
   -1.0268   -2.0383   -0.6942 O   0  0  0  0  0  0  0  0  0  0  0  0
   -1.2030   -2.8982    0.4392 C   0  0  0  0  0  0  0  0  0  0  0  0
   -2.3669   -3.8413    0.0803 C   0  0  0  0  0  0  0  0  0  0  0  0
   -2.6706   -4.7676    1.1827 N   0  0  0  0  0  0  0  0  0  0  0  0
   -3.9445   -5.2497    1.4632 C   0  0  0  0  0  0  0  0  0  0  0  0
   -4.9842   -5.2993    0.4987 C   0  0  0  0  0  0  0  0  0  0  0  0
   -6.2832   -5.7526    0.8475 C   0  0  0  0  0  0  0  0  0  0  0  0
   -6.5703   -6.1419    2.1697 C   0  0  0  0  0  0  0  0  0  0  0  0
   -5.5330   -6.0948    3.1083 C   0  0  0  0  0  0  0  0  0  0  0  0
   -4.2516   -5.6838    2.7603 C   0  0  0  0  0  0  0  0  0  0  0  0
   -3.4763   -5.7317    3.8981 C   0  0  0  0  0  0  0  0  0  0  0  0
   -2.2659   -5.5576    4.0009 O   0  0  0  0  0  0  0  0  0  0  0  0
   -4.2642   -6.1554    4.9797 N   0  0  0  0  0  0  0  0  0  0  0  0
   -3.9918   -5.7238    6.3710 C   0  0  0  0  0  0  0  0  0  0  0  0
   -4.3593   -6.8261    7.4059 C   0  0  0  0  0  0  0  0  0  0  0  0
   -4.5334   -6.2330    8.8237 C   0  0  0  0  0  0  0  0  0  0  0  0
   -5.5427   -5.1107    8.8030 C   0  0  0  0  0  0  0  0  0  0  0  0
   -6.3054   -4.8632    9.7243 O   0  0  0  0  0  0  0  0  0  0  0  0
   -5.4642   -4.1822    7.7632 N   0  0  0  0  0  0  0  0  0  0  0  0
   -4.6418   -4.3680    6.6429 C   0  0  0  0  0  0  0  0  0  0  0  0
   -4.4268   -3.3717    5.9650 O   0  0  0  0  0  0  0  0  0  0  0  0
   -5.5532   -6.3744    4.4537 C   0  0  0  0  0  0  0  0  0  0  0  0
   -6.5478   -6.5097    5.1578 O   0  0  0  0  0  0  0  0  0  0  0  0
    1.2661    2.8942   -3.4459 H   0  0  0  0  0  0  0  0  0  0  0  0
    1.3050    4.5870   -3.9463 H   0  0  0  0  0  0  0  0  0  0  0  0
    3.4558    5.5794   -3.4927 H   0  0  0  0  0  0  0  0  0  0  0  0
    5.6750    8.0464   -3.2570 H   0  0  0  0  0  0  0  0  0  0  0  0
    4.2659    9.3555   -4.8405 H   0  0  0  0  0  0  0  0  0  0  0  0
    3.9747    5.9171   -7.4298 H   0  0  0  0  0  0  0  0  0  0  0  0
    9.1452    5.1476   -2.0828 H   0  0  0  0  0  0  0  0  0  0  0  0
    6.1030    1.7797   -1.3036 H   0  0  0  0  0  0  0  0  0  0  0  0
    4.9037    0.1890    0.1267 H   0  0  0  0  0  0  0  0  0  0  0  0
    2.4572    0.4332    0.5383 H   0  0  0  0  0  0  0  0  0  0  0  0
    1.1891    2.2882   -0.5825 H   0  0  0  0  0  0  0  0  0  0  0  0
   -1.7176    4.6610   -3.3229 H   0  0  0  0  0  0  0  0  0  0  0  0
   -2.8892    2.6804   -3.2773 H   0  0  0  0  0  0  0  0  0  0  0  0
   -2.2165    2.6580   -1.6415 H   0  0  0  0  0  0  0  0  0  0  0  0
   -0.3987    1.5213   -3.7508 H   0  0  0  0  0  0  0  0  0  0  0  0
   -1.9274    0.6463   -3.5252 H   0  0  0  0  0  0  0  0  0  0  0  0
    1.1476    0.0151   -2.1257 H   0  0  0  0  0  0  0  0  0  0  0  0
   -0.1725   -0.9934   -2.7694 H   0  0  0  0  0  0  0  0  0  0  0  0
   -0.0384   -0.4365    0.2299 H   0  0  0  0  0  0  0  0  0  0  0  0
    1.0187   -1.6802   -0.4919 H   0  0  0  0  0  0  0  0  0  0  0  0
   -0.2912   -3.4782    0.6393 H   0  0  0  0  0  0  0  0  0  0  0  0
   -1.4527   -2.3153    1.3361 H   0  0  0  0  0  0  0  0  0  0  0  0
   -3.2466   -3.2243   -0.1420 H   0  0  0  0  0  0  0  0  0  0  0  0
   -2.1054   -4.4094   -0.8212 H   0  0  0  0  0  0  0  0  0  0  0  0
   -2.0006   -4.8481    1.9399 H   0  0  0  0  0  0  0  0  0  0  0  0
   -4.7985   -4.9881   -0.5244 H   0  0  0  0  0  0  0  0  0  0  0  0
   -7.0700   -5.7870    0.0969 H   0  0  0  0  0  0  0  0  0  0  0  0
   -7.5667   -6.4666    2.4606 H   0  0  0  0  0  0  0  0  0  0  0  0
   -2.9097   -5.5536    6.4563 H   0  0  0  0  0  0  0  0  0  0  0  0
   -3.6026   -7.6212    7.3958 H   0  0  0  0  0  0  0  0  0  0  0  0
   -5.3048   -7.3031    7.1240 H   0  0  0  0  0  0  0  0  0  0  0  0
   -4.8711   -7.0086    9.5252 H   0  0  0  0  0  0  0  0  0  0  0  0
   -3.5795   -5.8517    9.2093 H   0  0  0  0  0  0  0  0  0  0  0  0
   -5.9816   -3.3203    7.8416 H   0  0  0  0  0  0  0  0  0  0  0  0
  1  2  2  0  0  0  0
  2  3  1  0  0  0  0
  2 28  1  0  0  0  0
  3  4  1  0  0  0  0
  3 57  1  0  0  0  0
  3 58  1  0  0  0  0
  4  5  1  0  0  0  0
  4 27  1  0  0  0  0
  5  6  2  0  0  0  0
  5 59  1  0  0  0  0
  6  7  1  0  0  0  0
  6 22  1  0  0  0  0
  7  8  2  0  0  0  0
  7 20  1  0  0  0  0
  8  9  1  0  0  0  0
  8 17  1  0  0  0  0
  9 10  2  0  0  0  0
  9 15  1  0  0  0  0
 10 11  1  0  0  0  0
 10 60  1  0  0  0  0
 11 12  2  0  0  0  0
 11 61  1  0  0  0  0
 12 13  1  0  0  0  0
 12 14  1  0  0  0  0
 14 15  2  0  0  0  0
 14 62  1  0  0  0  0
 15 16  1  0  0  0  0
 17 18  2  0  0  0  0
 17 19  1  0  0  0  0
 19 20  1  0  0  0  0
 19 63  1  0  0  0  0
 20 21  2  0  0  0  0
 22 23  2  0  0  0  0
 22 27  1  0  0  0  0
 23 24  1  0  0  0  0
 23 64  1  0  0  0  0
 24 25  2  0  0  0  0
 24 65  1  0  0  0  0
 25 26  1  0  0  0  0
 25 66  1  0  0  0  0
 26 27  2  0  0  0  0
 26 67  1  0  0  0  0
 28 29  1  0  0  0  0
 28 68  1  0  0  0  0
 29 30  1  0  0  0  0
 29 69  1  0  0  0  0
 29 70  1  0  0  0  0
 30 31  1  0  0  0  0
 30 71  1  0  0  0  0
 30 72  1  0  0  0  0
 31 32  1  0  0  0  0
 32 33  1  0  0  0  0
 32 73  1  0  0  0  0
 32 74  1  0  0  0  0
 33 34  1  0  0  0  0
 33 75  1  0  0  0  0
 33 76  1  0  0  0  0
 34 35  1  0  0  0  0
 35 36  1  0  0  0  0
 35 77  1  0  0  0  0
 35 78  1  0  0  0  0
 36 37  1  0  0  0  0
 36 79  1  0  0  0  0
 36 80  1  0  0  0  0
 37 38  1  0  0  0  0
 37 81  1  0  0  0  0
 38 39  2  0  0  0  0
 38 43  1  0  0  0  0
 39 40  1  0  0  0  0
 39 82  1  0  0  0  0
 40 41  2  0  0  0  0
 40 83  1  0  0  0  0
 41 42  1  0  0  0  0
 41 84  1  0  0  0  0
 42 43  2  0  0  0  0
 42 55  1  0  0  0  0
 43 44  1  0  0  0  0
 44 45  2  0  0  0  0
 44 46  1  0  0  0  0
 46 47  1  0  0  0  0
 46 55  1  0  0  0  0
 47 48  1  0  0  0  0
 47 53  1  0  0  0  0
 47 85  1  0  0  0  0
 48 49  1  0  0  0  0
 48 86  1  0  0  0  0
 48 87  1  0  0  0  0
 49 50  1  0  0  0  0
 49 88  1  0  0  0  0
 49 89  1  0  0  0  0
 50 51  2  0  0  0  0
 50 52  1  0  0  0  0
 52 53  1  0  0  0  0
 52 90  1  0  0  0  0
 53 54  2  0  0  0  0
 55 56  2  0  0  0  0
M  END
$$$$
protac3895RUN2
  chem.cr 07102519423D
protac3895RUN2
 90 96  0  0  0  0  0  0  0  0999 V2000
    3.1250   -5.0776   -2.9751 O   0  0  0  0  0  0  0  0  0  0  0  0
    2.7685   -4.1453   -2.2664 C   0  0  0  0  0  0  0  0  0  0  0  0
    3.4479   -3.8119   -0.9597 C   0  0  0  0  0  0  0  0  0  0  0  0
    4.1139   -2.4941   -0.9395 N   0  0  0  0  0  0  0  0  0  0  0  0
    5.5132   -2.4467   -0.8155 C   0  0  0  0  0  0  0  0  0  0  0  0
    5.8959   -1.5113    0.0841 C   0  0  0  0  0  0  0  0  0  0  0  0
    7.1374   -1.3276    0.6338 C   0  0  0  0  0  0  0  0  0  0  0  0
    8.2997   -1.8946    0.2226 C   0  0  0  0  0  0  0  0  0  0  0  0
    8.4851   -2.7137   -0.8731 C   0  0  0  0  0  0  0  0  0  0  0  0
    8.7988   -2.1411   -2.1212 C   0  0  0  0  0  0  0  0  0  0  0  0
    9.0461   -2.9594   -3.2369 C   0  0  0  0  0  0  0  0  0  0  0  0
    8.9748   -4.3551   -3.1090 C   0  0  0  0  0  0  0  0  0  0  0  0
    9.2979   -5.3793   -4.5016 Cl  0  0  0  0  0  0  0  0  0  0  0  0
    8.6606   -4.9349   -1.8686 C   0  0  0  0  0  0  0  0  0  0  0  0
    8.4229   -4.1191   -0.7501 C   0  0  0  0  0  0  0  0  0  0  0  0
    8.0201   -4.8717    0.7915 Cl  0  0  0  0  0  0  0  0  0  0  0  0
    9.3158   -1.5714    1.0220 C   0  0  0  0  0  0  0  0  0  0  0  0
   10.5045   -1.8759    1.0382 O   0  0  0  0  0  0  0  0  0  0  0  0
    8.8463   -0.7212    2.0017 N   0  0  0  0  0  0  0  0  0  0  0  0
    7.4787   -0.6323    1.7480 C   0  0  0  0  0  0  0  0  0  0  0  0
    6.8457   -0.0611    2.6251 O   0  0  0  0  0  0  0  0  0  0  0  0
    4.7151   -0.8218    0.4101 C   0  0  0  0  0  0  0  0  0  0  0  0
    4.4939    0.4380    1.0068 C   0  0  0  0  0  0  0  0  0  0  0  0
    3.1750    0.9303    1.1209 C   0  0  0  0  0  0  0  0  0  0  0  0
    2.0842    0.2112    0.5895 C   0  0  0  0  0  0  0  0  0  0  0  0
    2.3094   -0.9871   -0.1071 C   0  0  0  0  0  0  0  0  0  0  0  0
    3.6259   -1.4584   -0.1919 C   0  0  0  0  0  0  0  0  0  0  0  0
    1.4575   -3.6682   -2.4131 N   0  0  0  0  0  0  0  0  0  0  0  0
    0.3774   -4.4800   -2.9900 C   0  0  0  0  0  0  0  0  0  0  0  0
   -0.9214   -3.6743   -3.1779 C   0  0  0  0  0  0  0  0  0  0  0  0
   -1.1974   -2.9684   -1.9535 O   0  0  0  0  0  0  0  0  0  0  0  0
   -2.5217   -2.4153   -1.8179 C   0  0  0  0  0  0  0  0  0  0  0  0
   -2.7896   -1.4011   -2.9587 C   0  0  0  0  0  0  0  0  0  0  0  0
   -4.0049   -0.6832   -2.6973 O   0  0  0  0  0  0  0  0  0  0  0  0
   -3.9268    0.3544   -1.7115 C   0  0  0  0  0  0  0  0  0  0  0  0
   -5.2383    1.1435   -1.8154 C   0  0  0  0  0  0  0  0  0  0  0  0
   -5.2388    2.2660   -0.8678 N   0  0  0  0  0  0  0  0  0  0  0  0
   -6.2343    3.2323   -0.7929 C   0  0  0  0  0  0  0  0  0  0  0  0
   -7.1579    3.4723   -1.8411 C   0  0  0  0  0  0  0  0  0  0  0  0
   -8.1742    4.4500   -1.7032 C   0  0  0  0  0  0  0  0  0  0  0  0
   -8.2920    5.2033   -0.5157 C   0  0  0  0  0  0  0  0  0  0  0  0
   -7.3719    4.9521    0.5094 C   0  0  0  0  0  0  0  0  0  0  0  0
   -6.3654    3.9995    0.3716 C   0  0  0  0  0  0  0  0  0  0  0  0
   -5.6685    3.9438    1.5566 C   0  0  0  0  0  0  0  0  0  0  0  0
   -4.5707    3.4380    1.7641 O   0  0  0  0  0  0  0  0  0  0  0  0
   -6.2468    4.8436    2.4612 N   0  0  0  0  0  0  0  0  0  0  0  0
   -6.2594    4.6324    3.9235 C   0  0  0  0  0  0  0  0  0  0  0  0
   -5.0311    5.3163    4.5872 C   0  0  0  0  0  0  0  0  0  0  0  0
   -4.0853    4.3064    5.2747 C   0  0  0  0  0  0  0  0  0  0  0  0
   -4.8639    3.3288    6.1161 C   0  0  0  0  0  0  0  0  0  0  0  0
   -4.5165    2.9332    7.2185 O   0  0  0  0  0  0  0  0  0  0  0  0
   -5.9332    2.6854    5.4944 N   0  0  0  0  0  0  0  0  0  0  0  0
   -6.4671    3.1595    4.2911 C   0  0  0  0  0  0  0  0  0  0  0  0
   -7.3395    2.4616    3.7916 O   0  0  0  0  0  0  0  0  0  0  0  0
   -7.2871    5.4853    1.7751 C   0  0  0  0  0  0  0  0  0  0  0  0
   -8.0488    6.2807    2.3128 O   0  0  0  0  0  0  0  0  0  0  0  0
    2.7129   -3.8487   -0.1480 H   0  0  0  0  0  0  0  0  0  0  0  0
    4.1836   -4.5958   -0.7471 H   0  0  0  0  0  0  0  0  0  0  0  0
    6.0898   -3.2237   -1.3082 H   0  0  0  0  0  0  0  0  0  0  0  0
    8.8645   -1.0599   -2.2176 H   0  0  0  0  0  0  0  0  0  0  0  0
    9.2963   -2.5130   -4.1963 H   0  0  0  0  0  0  0  0  0  0  0  0
    8.6088   -6.0152   -1.7740 H   0  0  0  0  0  0  0  0  0  0  0  0
    9.2296   -0.6876    2.9320 H   0  0  0  0  0  0  0  0  0  0  0  0
    5.3037    1.0737    1.3336 H   0  0  0  0  0  0  0  0  0  0  0  0
    3.0009    1.8937    1.5962 H   0  0  0  0  0  0  0  0  0  0  0  0
    1.0784    0.6122    0.6692 H   0  0  0  0  0  0  0  0  0  0  0  0
    1.4886   -1.5090   -0.5856 H   0  0  0  0  0  0  0  0  0  0  0  0
    1.1924   -2.8295   -1.9143 H   0  0  0  0  0  0  0  0  0  0  0  0
    0.1864   -5.3315   -2.3243 H   0  0  0  0  0  0  0  0  0  0  0  0
    0.7045   -4.8819   -3.9582 H   0  0  0  0  0  0  0  0  0  0  0  0
   -1.7408   -4.3614   -3.4299 H   0  0  0  0  0  0  0  0  0  0  0  0
   -0.7882   -2.9699   -4.0101 H   0  0  0  0  0  0  0  0  0  0  0  0
   -2.6084   -1.9157   -0.8458 H   0  0  0  0  0  0  0  0  0  0  0  0
   -3.2767   -3.2110   -1.8536 H   0  0  0  0  0  0  0  0  0  0  0  0
   -2.8926   -1.9434   -3.9083 H   0  0  0  0  0  0  0  0  0  0  0  0
   -1.9474   -0.7038   -3.0555 H   0  0  0  0  0  0  0  0  0  0  0  0
   -3.8104   -0.0558   -0.6991 H   0  0  0  0  0  0  0  0  0  0  0  0
   -3.0842    1.0251   -1.9257 H   0  0  0  0  0  0  0  0  0  0  0  0
   -5.3392    1.5130   -2.8432 H   0  0  0  0  0  0  0  0  0  0  0  0
   -6.0843    0.4767   -1.6020 H   0  0  0  0  0  0  0  0  0  0  0  0
   -4.6000    2.2349   -0.0791 H   0  0  0  0  0  0  0  0  0  0  0  0
   -7.1002    2.9059   -2.7647 H   0  0  0  0  0  0  0  0  0  0  0  0
   -8.8782    4.6129   -2.5156 H   0  0  0  0  0  0  0  0  0  0  0  0
   -9.0799    5.9424   -0.3909 H   0  0  0  0  0  0  0  0  0  0  0  0
   -7.1519    5.1423    4.3076 H   0  0  0  0  0  0  0  0  0  0  0  0
   -5.3972    6.0319    5.3356 H   0  0  0  0  0  0  0  0  0  0  0  0
   -4.4755    5.9048    3.8439 H   0  0  0  0  0  0  0  0  0  0  0  0
   -3.5195    3.7500    4.5164 H   0  0  0  0  0  0  0  0  0  0  0  0
   -3.3527    4.8338    5.9003 H   0  0  0  0  0  0  0  0  0  0  0  0
   -6.2991    1.8338    5.8926 H   0  0  0  0  0  0  0  0  0  0  0  0
  1  2  2  0  0  0  0
  2  3  1  0  0  0  0
  2 28  1  0  0  0  0
  3  4  1  0  0  0  0
  3 57  1  0  0  0  0
  3 58  1  0  0  0  0
  4  5  1  0  0  0  0
  4 27  1  0  0  0  0
  5  6  2  0  0  0  0
  5 59  1  0  0  0  0
  6  7  1  0  0  0  0
  6 22  1  0  0  0  0
  7  8  2  0  0  0  0
  7 20  1  0  0  0  0
  8  9  1  0  0  0  0
  8 17  1  0  0  0  0
  9 10  2  0  0  0  0
  9 15  1  0  0  0  0
 10 11  1  0  0  0  0
 10 60  1  0  0  0  0
 11 12  2  0  0  0  0
 11 61  1  0  0  0  0
 12 13  1  0  0  0  0
 12 14  1  0  0  0  0
 14 15  2  0  0  0  0
 14 62  1  0  0  0  0
 15 16  1  0  0  0  0
 17 18  2  0  0  0  0
 17 19  1  0  0  0  0
 19 20  1  0  0  0  0
 19 63  1  0  0  0  0
 20 21  2  0  0  0  0
 22 23  2  0  0  0  0
 22 27  1  0  0  0  0
 23 24  1  0  0  0  0
 23 64  1  0  0  0  0
 24 25  2  0  0  0  0
 24 65  1  0  0  0  0
 25 26  1  0  0  0  0
 25 66  1  0  0  0  0
 26 27  2  0  0  0  0
 26 67  1  0  0  0  0
 28 29  1  0  0  0  0
 28 68  1  0  0  0  0
 29 30  1  0  0  0  0
 29 69  1  0  0  0  0
 29 70  1  0  0  0  0
 30 31  1  0  0  0  0
 30 71  1  0  0  0  0
 30 72  1  0  0  0  0
 31 32  1  0  0  0  0
 32 33  1  0  0  0  0
 32 73  1  0  0  0  0
 32 74  1  0  0  0  0
 33 34  1  0  0  0  0
 33 75  1  0  0  0  0
 33 76  1  0  0  0  0
 34 35  1  0  0  0  0
 35 36  1  0  0  0  0
 35 77  1  0  0  0  0
 35 78  1  0  0  0  0
 36 37  1  0  0  0  0
 36 79  1  0  0  0  0
 36 80  1  0  0  0  0
 37 38  1  0  0  0  0
 37 81  1  0  0  0  0
 38 39  2  0  0  0  0
 38 43  1  0  0  0  0
 39 40  1  0  0  0  0
 39 82  1  0  0  0  0
 40 41  2  0  0  0  0
 40 83  1  0  0  0  0
 41 42  1  0  0  0  0
 41 84  1  0  0  0  0
 42 43  2  0  0  0  0
 42 55  1  0  0  0  0
 43 44  1  0  0  0  0
 44 45  2  0  0  0  0
 44 46  1  0  0  0  0
 46 47  1  0  0  0  0
 46 55  1  0  0  0  0
 47 48  1  0  0  0  0
 47 53  1  0  0  0  0
 47 85  1  0  0  0  0
 48 49  1  0  0  0  0
 48 86  1  0  0  0  0
 48 87  1  0  0  0  0
 49 50  1  0  0  0  0
 49 88  1  0  0  0  0
 49 89  1  0  0  0  0
 50 51  2  0  0  0  0
 50 52  1  0  0  0  0
 52 53  1  0  0  0  0
 52 90  1  0  0  0  0
 53 54  2  0  0  0  0
 55 56  2  0  0  0  0
M  END
$$$$
protac3895RUN2
  chem.cr 07102519423D
protac3895RUN2
 90 96  0  0  0  0  0  0  0  0999 V2000
    5.3855    4.4108    0.6022 O   0  0  0  0  0  0  0  0  0  0  0  0
    5.1156    3.3679    0.0225 C   0  0  0  0  0  0  0  0  0  0  0  0
    6.0954    2.6789   -0.8935 C   0  0  0  0  0  0  0  0  0  0  0  0
    6.9692    1.6982   -0.2209 N   0  0  0  0  0  0  0  0  0  0  0  0
    6.6389    0.3408   -0.3108 C   0  0  0  0  0  0  0  0  0  0  0  0
    7.7245   -0.4182   -0.5871 C   0  0  0  0  0  0  0  0  0  0  0  0
    7.7514   -1.7459   -0.9297 C   0  0  0  0  0  0  0  0  0  0  0  0
    6.7172   -2.6166   -0.8359 C   0  0  0  0  0  0  0  0  0  0  0  0
    5.4680   -2.3539   -0.3078 C   0  0  0  0  0  0  0  0  0  0  0  0
    4.3796   -2.1295   -1.1717 C   0  0  0  0  0  0  0  0  0  0  0  0
    3.1138   -1.8112   -0.6478 C   0  0  0  0  0  0  0  0  0  0  0  0
    2.9289   -1.7300    0.7414 C   0  0  0  0  0  0  0  0  0  0  0  0
    1.3447   -1.3292    1.3910 Cl  0  0  0  0  0  0  0  0  0  0  0  0
    4.0040   -1.9746    1.6110 C   0  0  0  0  0  0  0  0  0  0  0  0
    5.2712   -2.2844    1.0884 C   0  0  0  0  0  0  0  0  0  0  0  0
    6.6055   -2.5716    2.2026 Cl  0  0  0  0  0  0  0  0  0  0  0  0
    7.0344   -3.8211   -1.3103 C   0  0  0  0  0  0  0  0  0  0  0  0
    6.4083   -4.8647   -1.4393 O   0  0  0  0  0  0  0  0  0  0  0  0
    8.3522   -3.7848   -1.7212 N   0  0  0  0  0  0  0  0  0  0  0  0
    8.7506   -2.4663   -1.5046 C   0  0  0  0  0  0  0  0  0  0  0  0
    9.8499   -2.1894   -1.9615 O   0  0  0  0  0  0  0  0  0  0  0  0
    8.8106    0.4697   -0.5212 C   0  0  0  0  0  0  0  0  0  0  0  0
   10.2002    0.2531   -0.3934 C   0  0  0  0  0  0  0  0  0  0  0  0
   11.0631    1.3584   -0.2288 C   0  0  0  0  0  0  0  0  0  0  0  0
   10.5512    2.6677   -0.1165 C   0  0  0  0  0  0  0  0  0  0  0  0
    9.1620    2.8777   -0.1295 C   0  0  0  0  0  0  0  0  0  0  0  0
    8.3307    1.7671   -0.3245 C   0  0  0  0  0  0  0  0  0  0  0  0
    3.7612    3.0454   -0.1722 N   0  0  0  0  0  0  0  0  0  0  0  0
    2.6803    4.0399   -0.0650 C   0  0  0  0  0  0  0  0  0  0  0  0
    1.3568    3.4274    0.4213 C   0  0  0  0  0  0  0  0  0  0  0  0
    0.8858    2.5161   -0.5798 O   0  0  0  0  0  0  0  0  0  0  0  0
   -0.4501    2.0475   -0.3582 C   0  0  0  0  0  0  0  0  0  0  0  0
   -0.8368    1.1323   -1.5352 C   0  0  0  0  0  0  0  0  0  0  0  0
   -2.2664    0.9907   -1.5374 O   0  0  0  0  0  0  0  0  0  0  0  0
   -2.8333    0.1201   -0.5461 C   0  0  0  0  0  0  0  0  0  0  0  0
   -4.0290    0.8624    0.0743 C   0  0  0  0  0  0  0  0  0  0  0  0
   -4.9793   -0.0913    0.6704 N   0  0  0  0  0  0  0  0  0  0  0  0
   -5.8697    0.2521    1.6798 C   0  0  0  0  0  0  0  0  0  0  0  0
   -5.5028    1.0586    2.7833 C   0  0  0  0  0  0  0  0  0  0  0  0
   -6.4459    1.3930    3.7881 C   0  0  0  0  0  0  0  0  0  0  0  0
   -7.7746    0.9257    3.7100 C   0  0  0  0  0  0  0  0  0  0  0  0
   -8.1214    0.1247    2.6169 C   0  0  0  0  0  0  0  0  0  0  0  0
   -7.1953   -0.2035    1.6287 C   0  0  0  0  0  0  0  0  0  0  0  0
   -7.8406   -0.9582    0.6749 C   0  0  0  0  0  0  0  0  0  0  0  0
   -7.3217   -1.6633   -0.1830 O   0  0  0  0  0  0  0  0  0  0  0  0
   -9.1798   -1.1247    1.0686 N   0  0  0  0  0  0  0  0  0  0  0  0
  -10.3177   -1.4055    0.1635 C   0  0  0  0  0  0  0  0  0  0  0  0
  -10.7357   -2.8906    0.2412 C   0  0  0  0  0  0  0  0  0  0  0  0
   -9.8236   -3.7545   -0.6561 C   0  0  0  0  0  0  0  0  0  0  0  0
   -9.7926   -3.2377   -2.0763 C   0  0  0  0  0  0  0  0  0  0  0  0
   -9.7490   -3.9639   -3.0577 O   0  0  0  0  0  0  0  0  0  0  0  0
   -9.9119   -1.8618   -2.3022 N   0  0  0  0  0  0  0  0  0  0  0  0
  -10.0737   -0.9294   -1.2666 C   0  0  0  0  0  0  0  0  0  0  0  0
  -10.1587    0.2441   -1.6019 O   0  0  0  0  0  0  0  0  0  0  0  0
   -9.3255   -0.4478    2.2851 C   0  0  0  0  0  0  0  0  0  0  0  0
  -10.4003   -0.3544    2.8680 O   0  0  0  0  0  0  0  0  0  0  0  0
    5.5647    2.1828   -1.7139 H   0  0  0  0  0  0  0  0  0  0  0  0
    6.7273    3.4516   -1.3472 H   0  0  0  0  0  0  0  0  0  0  0  0
    5.5868    0.0821   -0.2772 H   0  0  0  0  0  0  0  0  0  0  0  0
    4.5261   -2.1933   -2.2470 H   0  0  0  0  0  0  0  0  0  0  0  0
    2.2764   -1.6332   -1.3173 H   0  0  0  0  0  0  0  0  0  0  0  0
    3.8564   -1.9239    2.6866 H   0  0  0  0  0  0  0  0  0  0  0  0
    8.7390   -4.3781   -2.4388 H   0  0  0  0  0  0  0  0  0  0  0  0
   10.6275   -0.7384   -0.3548 H   0  0  0  0  0  0  0  0  0  0  0  0
   12.1345    1.1943   -0.1502 H   0  0  0  0  0  0  0  0  0  0  0  0
   11.2278    3.5048    0.0328 H   0  0  0  0  0  0  0  0  0  0  0  0
    8.7441    3.8659    0.0409 H   0  0  0  0  0  0  0  0  0  0  0  0
    3.5218    2.1240   -0.5177 H   0  0  0  0  0  0  0  0  0  0  0  0
    2.5251    4.5034   -1.0481 H   0  0  0  0  0  0  0  0  0  0  0  0
    2.9759    4.8353    0.6322 H   0  0  0  0  0  0  0  0  0  0  0  0
    0.6313    4.2375    0.5760 H   0  0  0  0  0  0  0  0  0  0  0  0
    1.5095    2.9134    1.3795 H   0  0  0  0  0  0  0  0  0  0  0  0
   -1.1470    2.8956   -0.3224 H   0  0  0  0  0  0  0  0  0  0  0  0
   -0.5233    1.4977    0.5876 H   0  0  0  0  0  0  0  0  0  0  0  0
   -0.3348    0.1585   -1.4536 H   0  0  0  0  0  0  0  0  0  0  0  0
   -0.5134    1.6019   -2.4731 H   0  0  0  0  0  0  0  0  0  0  0  0
   -3.1751   -0.8050   -1.0275 H   0  0  0  0  0  0  0  0  0  0  0  0
   -2.1169   -0.1479    0.2414 H   0  0  0  0  0  0  0  0  0  0  0  0
   -3.6602    1.5816    0.8159 H   0  0  0  0  0  0  0  0  0  0  0  0
   -4.5418    1.4344   -0.7118 H   0  0  0  0  0  0  0  0  0  0  0  0
   -5.3187   -0.8270    0.0573 H   0  0  0  0  0  0  0  0  0  0  0  0
   -4.4840    1.4210    2.8758 H   0  0  0  0  0  0  0  0  0  0  0  0
   -6.1459    2.0150    4.6276 H   0  0  0  0  0  0  0  0  0  0  0  0
   -8.5136    1.1765    4.4680 H   0  0  0  0  0  0  0  0  0  0  0  0
  -11.1684   -0.8137    0.5266 H   0  0  0  0  0  0  0  0  0  0  0  0
  -11.7732   -2.9892   -0.1055 H   0  0  0  0  0  0  0  0  0  0  0  0
  -10.7107   -3.2386    1.2834 H   0  0  0  0  0  0  0  0  0  0  0  0
   -8.8016   -3.7665   -0.2579 H   0  0  0  0  0  0  0  0  0  0  0  0
  -10.1703   -4.7951   -0.6578 H   0  0  0  0  0  0  0  0  0  0  0  0
   -9.8487   -1.5207   -3.2493 H   0  0  0  0  0  0  0  0  0  0  0  0
  1  2  2  0  0  0  0
  2  3  1  0  0  0  0
  2 28  1  0  0  0  0
  3  4  1  0  0  0  0
  3 57  1  0  0  0  0
  3 58  1  0  0  0  0
  4  5  1  0  0  0  0
  4 27  1  0  0  0  0
  5  6  2  0  0  0  0
  5 59  1  0  0  0  0
  6  7  1  0  0  0  0
  6 22  1  0  0  0  0
  7  8  2  0  0  0  0
  7 20  1  0  0  0  0
  8  9  1  0  0  0  0
  8 17  1  0  0  0  0
  9 10  2  0  0  0  0
  9 15  1  0  0  0  0
 10 11  1  0  0  0  0
 10 60  1  0  0  0  0
 11 12  2  0  0  0  0
 11 61  1  0  0  0  0
 12 13  1  0  0  0  0
 12 14  1  0  0  0  0
 14 15  2  0  0  0  0
 14 62  1  0  0  0  0
 15 16  1  0  0  0  0
 17 18  2  0  0  0  0
 17 19  1  0  0  0  0
 19 20  1  0  0  0  0
 19 63  1  0  0  0  0
 20 21  2  0  0  0  0
 22 23  2  0  0  0  0
 22 27  1  0  0  0  0
 23 24  1  0  0  0  0
 23 64  1  0  0  0  0
 24 25  2  0  0  0  0
 24 65  1  0  0  0  0
 25 26  1  0  0  0  0
 25 66  1  0  0  0  0
 26 27  2  0  0  0  0
 26 67  1  0  0  0  0
 28 29  1  0  0  0  0
 28 68  1  0  0  0  0
 29 30  1  0  0  0  0
 29 69  1  0  0  0  0
 29 70  1  0  0  0  0
 30 31  1  0  0  0  0
 30 71  1  0  0  0  0
 30 72  1  0  0  0  0
 31 32  1  0  0  0  0
 32 33  1  0  0  0  0
 32 73  1  0  0  0  0
 32 74  1  0  0  0  0
 33 34  1  0  0  0  0
 33 75  1  0  0  0  0
 33 76  1  0  0  0  0
 34 35  1  0  0  0  0
 35 36  1  0  0  0  0
 35 77  1  0  0  0  0
 35 78  1  0  0  0  0
 36 37  1  0  0  0  0
 36 79  1  0  0  0  0
 36 80  1  0  0  0  0
 37 38  1  0  0  0  0
 37 81  1  0  0  0  0
 38 39  2  0  0  0  0
 38 43  1  0  0  0  0
 39 40  1  0  0  0  0
 39 82  1  0  0  0  0
 40 41  2  0  0  0  0
 40 83  1  0  0  0  0
 41 42  1  0  0  0  0
 41 84  1  0  0  0  0
 42 43  2  0  0  0  0
 42 55  1  0  0  0  0
 43 44  1  0  0  0  0
 44 45  2  0  0  0  0
 44 46  1  0  0  0  0
 46 47  1  0  0  0  0
 46 55  1  0  0  0  0
 47 48  1  0  0  0  0
 47 53  1  0  0  0  0
 47 85  1  0  0  0  0
 48 49  1  0  0  0  0
 48 86  1  0  0  0  0
 48 87  1  0  0  0  0
 49 50  1  0  0  0  0
 49 88  1  0  0  0  0
 49 89  1  0  0  0  0
 50 51  2  0  0  0  0
 50 52  1  0  0  0  0
 52 53  1  0  0  0  0
 52 90  1  0  0  0  0
 53 54  2  0  0  0  0
 55 56  2  0  0  0  0
M  END
$$$$
protac3895RUN2
  chem.cr 07102519423D
protac3895RUN2
 90 96  0  0  0  0  0  0  0  0999 V2000
    0.8378    2.1221    2.4970 O   0  0  0  0  0  0  0  0  0  0  0  0
    1.8148    1.5583    2.0314 C   0  0  0  0  0  0  0  0  0  0  0  0
    2.3268    0.2224    2.5417 C   0  0  0  0  0  0  0  0  0  0  0  0
    3.7715    0.0048    2.3222 N   0  0  0  0  0  0  0  0  0  0  0  0
    4.1912   -0.5289    1.0958 C   0  0  0  0  0  0  0  0  0  0  0  0
    5.2504    0.1497    0.5986 C   0  0  0  0  0  0  0  0  0  0  0  0
    5.7982    0.0386   -0.6553 C   0  0  0  0  0  0  0  0  0  0  0  0
    5.5229   -0.9206   -1.5753 C   0  0  0  0  0  0  0  0  0  0  0  0
    4.6725   -2.0015   -1.4337 C   0  0  0  0  0  0  0  0  0  0  0  0
    3.4771   -2.0359   -2.1786 C   0  0  0  0  0  0  0  0  0  0  0  0
    2.5908   -3.1190   -2.0583 C   0  0  0  0  0  0  0  0  0  0  0  0
    2.9046   -4.1864   -1.2023 C   0  0  0  0  0  0  0  0  0  0  0  0
    1.8021   -5.5480   -1.0540 Cl  0  0  0  0  0  0  0  0  0  0  0  0
    4.1068   -4.1777   -0.4771 C   0  0  0  0  0  0  0  0  0  0  0  0
    4.9959   -3.0958   -0.5976 C   0  0  0  0  0  0  0  0  0  0  0  0
    6.5069   -3.1349    0.3108 Cl  0  0  0  0  0  0  0  0  0  0  0  0
    6.1760   -0.7107   -2.7204 C   0  0  0  0  0  0  0  0  0  0  0  0
    6.2013   -1.2976   -3.7923 O   0  0  0  0  0  0  0  0  0  0  0  0
    6.9523    0.4208   -2.5731 N   0  0  0  0  0  0  0  0  0  0  0  0
    6.6549    0.8800   -1.2923 C   0  0  0  0  0  0  0  0  0  0  0  0
    7.1185    1.9823   -1.0387 O   0  0  0  0  0  0  0  0  0  0  0  0
    5.6109    1.0535    1.6150 C   0  0  0  0  0  0  0  0  0  0  0  0
    6.7615    1.8414    1.8360 C   0  0  0  0  0  0  0  0  0  0  0  0
    6.8336    2.6540    2.9901 C   0  0  0  0  0  0  0  0  0  0  0  0
    5.8087    2.6311    3.9602 C   0  0  0  0  0  0  0  0  0  0  0  0
    4.7255    1.7535    3.8081 C   0  0  0  0  0  0  0  0  0  0  0  0
    4.6771    0.9714    2.6496 C   0  0  0  0  0  0  0  0  0  0  0  0
    2.4545    2.1277    0.9195 N   0  0  0  0  0  0  0  0  0  0  0  0
    1.8293    2.1729   -0.4095 C   0  0  0  0  0  0  0  0  0  0  0  0
    1.5634    0.7552   -0.9365 C   0  0  0  0  0  0  0  0  0  0  0  0
    1.0122    0.8597   -2.2560 O   0  0  0  0  0  0  0  0  0  0  0  0
    0.0376   -0.1423   -2.6041 C   0  0  0  0  0  0  0  0  0  0  0  0
   -1.3843    0.4370   -2.3831 C   0  0  0  0  0  0  0  0  0  0  0  0
   -1.5752    0.8368   -1.0141 O   0  0  0  0  0  0  0  0  0  0  0  0
   -1.7437   -0.2007   -0.0398 C   0  0  0  0  0  0  0  0  0  0  0  0
   -1.7219    0.5011    1.3355 C   0  0  0  0  0  0  0  0  0  0  0  0
   -3.0733    0.9101    1.7310 N   0  0  0  0  0  0  0  0  0  0  0  0
   -3.9961   -0.0184    2.1881 C   0  0  0  0  0  0  0  0  0  0  0  0
   -3.6793   -0.9820    3.1722 C   0  0  0  0  0  0  0  0  0  0  0  0
   -4.6162   -1.9793    3.5372 C   0  0  0  0  0  0  0  0  0  0  0  0
   -5.8804   -2.0383    2.9104 C   0  0  0  0  0  0  0  0  0  0  0  0
   -6.1847   -1.0627    1.9497 C   0  0  0  0  0  0  0  0  0  0  0  0
   -5.2709   -0.0685    1.6174 C   0  0  0  0  0  0  0  0  0  0  0  0
   -5.8198    0.6979    0.6207 C   0  0  0  0  0  0  0  0  0  0  0  0
   -5.3438    1.6921    0.0887 O   0  0  0  0  0  0  0  0  0  0  0  0
   -7.0547    0.1416    0.2589 N   0  0  0  0  0  0  0  0  0  0  0  0
   -7.6956    0.2520   -1.0741 C   0  0  0  0  0  0  0  0  0  0  0  0
   -7.0432   -0.7027   -2.1031 C   0  0  0  0  0  0  0  0  0  0  0  0
   -5.6900   -0.1397   -2.5959 C   0  0  0  0  0  0  0  0  0  0  0  0
   -5.7938    1.3008   -3.0499 C   0  0  0  0  0  0  0  0  0  0  0  0
   -5.0407    1.7940   -3.8760 O   0  0  0  0  0  0  0  0  0  0  0  0
   -6.8498    2.0986   -2.5886 N   0  0  0  0  0  0  0  0  0  0  0  0
   -7.7568    1.6814   -1.6006 C   0  0  0  0  0  0  0  0  0  0  0  0
   -8.6893    2.4376   -1.3692 O   0  0  0  0  0  0  0  0  0  0  0  0
   -7.2937   -0.9205    1.1459 C   0  0  0  0  0  0  0  0  0  0  0  0
   -8.1350   -1.7794    0.9017 O   0  0  0  0  0  0  0  0  0  0  0  0
    2.1295    0.1631    3.6188 H   0  0  0  0  0  0  0  0  0  0  0  0
    1.7604   -0.5811    2.0601 H   0  0  0  0  0  0  0  0  0  0  0  0
    3.5674   -1.2898    0.6397 H   0  0  0  0  0  0  0  0  0  0  0  0
    3.2401   -1.2165   -2.8555 H   0  0  0  0  0  0  0  0  0  0  0  0
    1.6736   -3.1398   -2.6401 H   0  0  0  0  0  0  0  0  0  0  0  0
    4.3576   -5.0173    0.1657 H   0  0  0  0  0  0  0  0  0  0  0  0
    7.2301    1.0218   -3.3335 H   0  0  0  0  0  0  0  0  0  0  0  0
    7.6203    1.8177    1.1811 H   0  0  0  0  0  0  0  0  0  0  0  0
    7.7012    3.2915    3.1428 H   0  0  0  0  0  0  0  0  0  0  0  0
    5.8798    3.2569    4.8462 H   0  0  0  0  0  0  0  0  0  0  0  0
    3.9553    1.6747    4.5690 H   0  0  0  0  0  0  0  0  0  0  0  0
    3.4686    2.1567    0.9634 H   0  0  0  0  0  0  0  0  0  0  0  0
    2.4982    2.6967   -1.1059 H   0  0  0  0  0  0  0  0  0  0  0  0
    0.8818    2.7278   -0.3506 H   0  0  0  0  0  0  0  0  0  0  0  0
    0.8751    0.2534   -0.2496 H   0  0  0  0  0  0  0  0  0  0  0  0
    2.4999    0.1874   -0.9615 H   0  0  0  0  0  0  0  0  0  0  0  0
    0.1789   -1.0677   -2.0329 H   0  0  0  0  0  0  0  0  0  0  0  0
    0.1358   -0.3931   -3.6674 H   0  0  0  0  0  0  0  0  0  0  0  0
   -2.1406   -0.3008   -2.6827 H   0  0  0  0  0  0  0  0  0  0  0  0
   -1.5048    1.3113   -3.0373 H   0  0  0  0  0  0  0  0  0  0  0  0
   -2.6892   -0.7389   -0.1877 H   0  0  0  0  0  0  0  0  0  0  0  0
   -0.9252   -0.9261   -0.0884 H   0  0  0  0  0  0  0  0  0  0  0  0
   -1.2831   -0.1564    2.0933 H   0  0  0  0  0  0  0  0  0  0  0  0
   -1.0886    1.3933    1.2633 H   0  0  0  0  0  0  0  0  0  0  0  0
   -3.4825    1.6552    1.1723 H   0  0  0  0  0  0  0  0  0  0  0  0
   -2.7096   -0.9585    3.6597 H   0  0  0  0  0  0  0  0  0  0  0  0
   -4.3558   -2.7122    4.2957 H   0  0  0  0  0  0  0  0  0  0  0  0
   -6.5987   -2.8154    3.1612 H   0  0  0  0  0  0  0  0  0  0  0  0
   -8.7382   -0.0676   -0.9457 H   0  0  0  0  0  0  0  0  0  0  0  0
   -7.7190   -0.8082   -2.9632 H   0  0  0  0  0  0  0  0  0  0  0  0
   -6.9141   -1.7055   -1.6739 H   0  0  0  0  0  0  0  0  0  0  0  0
   -4.9391   -0.2001   -1.7996 H   0  0  0  0  0  0  0  0  0  0  0  0
   -5.3098   -0.7489   -3.4242 H   0  0  0  0  0  0  0  0  0  0  0  0
   -6.9106    3.0508   -2.9175 H   0  0  0  0  0  0  0  0  0  0  0  0
  1  2  2  0  0  0  0
  2  3  1  0  0  0  0
  2 28  1  0  0  0  0
  3  4  1  0  0  0  0
  3 57  1  0  0  0  0
  3 58  1  0  0  0  0
  4  5  1  0  0  0  0
  4 27  1  0  0  0  0
  5  6  2  0  0  0  0
  5 59  1  0  0  0  0
  6  7  1  0  0  0  0
  6 22  1  0  0  0  0
  7  8  2  0  0  0  0
  7 20  1  0  0  0  0
  8  9  1  0  0  0  0
  8 17  1  0  0  0  0
  9 10  2  0  0  0  0
  9 15  1  0  0  0  0
 10 11  1  0  0  0  0
 10 60  1  0  0  0  0
 11 12  2  0  0  0  0
 11 61  1  0  0  0  0
 12 13  1  0  0  0  0
 12 14  1  0  0  0  0
 14 15  2  0  0  0  0
 14 62  1  0  0  0  0
 15 16  1  0  0  0  0
 17 18  2  0  0  0  0
 17 19  1  0  0  0  0
 19 20  1  0  0  0  0
 19 63  1  0  0  0  0
 20 21  2  0  0  0  0
 22 23  2  0  0  0  0
 22 27  1  0  0  0  0
 23 24  1  0  0  0  0
 23 64  1  0  0  0  0
 24 25  2  0  0  0  0
 24 65  1  0  0  0  0
 25 26  1  0  0  0  0
 25 66  1  0  0  0  0
 26 27  2  0  0  0  0
 26 67  1  0  0  0  0
 28 29  1  0  0  0  0
 28 68  1  0  0  0  0
 29 30  1  0  0  0  0
 29 69  1  0  0  0  0
 29 70  1  0  0  0  0
 30 31  1  0  0  0  0
 30 71  1  0  0  0  0
 30 72  1  0  0  0  0
 31 32  1  0  0  0  0
 32 33  1  0  0  0  0
 32 73  1  0  0  0  0
 32 74  1  0  0  0  0
 33 34  1  0  0  0  0
 33 75  1  0  0  0  0
 33 76  1  0  0  0  0
 34 35  1  0  0  0  0
 35 36  1  0  0  0  0
 35 77  1  0  0  0  0
 35 78  1  0  0  0  0
 36 37  1  0  0  0  0
 36 79  1  0  0  0  0
 36 80  1  0  0  0  0
 37 38  1  0  0  0  0
 37 81  1  0  0  0  0
 38 39  2  0  0  0  0
 38 43  1  0  0  0  0
 39 40  1  0  0  0  0
 39 82  1  0  0  0  0
 40 41  2  0  0  0  0
 40 83  1  0  0  0  0
 41 42  1  0  0  0  0
 41 84  1  0  0  0  0
 42 43  2  0  0  0  0
 42 55  1  0  0  0  0
 43 44  1  0  0  0  0
 44 45  2  0  0  0  0
 44 46  1  0  0  0  0
 46 47  1  0  0  0  0
 46 55  1  0  0  0  0
 47 48  1  0  0  0  0
 47 53  1  0  0  0  0
 47 85  1  0  0  0  0
 48 49  1  0  0  0  0
 48 86  1  0  0  0  0
 48 87  1  0  0  0  0
 49 50  1  0  0  0  0
 49 88  1  0  0  0  0
 49 89  1  0  0  0  0
 50 51  2  0  0  0  0
 50 52  1  0  0  0  0
 52 53  1  0  0  0  0
 52 90  1  0  0  0  0
 53 54  2  0  0  0  0
 55 56  2  0  0  0  0
M  END
$$$$
protac3895RUN2
  chem.cr 07102519423D
protac3895RUN2
 90 96  0  0  0  0  0  0  0  0999 V2000
    7.8335   -0.7699    0.0714 O   0  0  0  0  0  0  0  0  0  0  0  0
    6.7877   -0.1710   -0.1269 C   0  0  0  0  0  0  0  0  0  0  0  0
    6.5878    1.2790    0.2759 C   0  0  0  0  0  0  0  0  0  0  0  0
    5.8795    1.4369    1.5626 N   0  0  0  0  0  0  0  0  0  0  0  0
    6.3737    0.7181    2.6643 C   0  0  0  0  0  0  0  0  0  0  0  0
    5.3814    0.0616    3.3027 C   0  0  0  0  0  0  0  0  0  0  0  0
    5.5101   -0.8788    4.2861 C   0  0  0  0  0  0  0  0  0  0  0  0
    6.6079   -1.1064    5.0409 C   0  0  0  0  0  0  0  0  0  0  0  0
    7.7581   -0.3414    5.0723 C   0  0  0  0  0  0  0  0  0  0  0  0
    7.7348    0.8737    5.7820 C   0  0  0  0  0  0  0  0  0  0  0  0
    8.8940    1.6588    5.8906 C   0  0  0  0  0  0  0  0  0  0  0  0
   10.0856    1.2314    5.2856 C   0  0  0  0  0  0  0  0  0  0  0  0
   11.5383    2.2083    5.4331 Cl  0  0  0  0  0  0  0  0  0  0  0  0
   10.1199    0.0211    4.5732 C   0  0  0  0  0  0  0  0  0  0  0  0
    8.9607   -0.7695    4.4699 C   0  0  0  0  0  0  0  0  0  0  0  0
    9.0325   -2.2838    3.5710 Cl  0  0  0  0  0  0  0  0  0  0  0  0
    6.4254   -2.1209    5.8875 C   0  0  0  0  0  0  0  0  0  0  0  0
    7.1249   -2.6275    6.7532 O   0  0  0  0  0  0  0  0  0  0  0  0
    5.1428   -2.6068    5.7089 N   0  0  0  0  0  0  0  0  0  0  0  0
    4.6173   -1.8215    4.6833 C   0  0  0  0  0  0  0  0  0  0  0  0
    3.5281   -2.1901    4.2688 O   0  0  0  0  0  0  0  0  0  0  0  0
    4.1978    0.4940    2.6849 C   0  0  0  0  0  0  0  0  0  0  0  0
    2.8462    0.3995    3.0777 C   0  0  0  0  0  0  0  0  0  0  0  0
    1.8544    1.0502    2.3125 C   0  0  0  0  0  0  0  0  0  0  0  0
    2.2041    1.8611    1.2145 C   0  0  0  0  0  0  0  0  0  0  0  0
    3.5572    2.0449    0.8794 C   0  0  0  0  0  0  0  0  0  0  0  0
    4.5167    1.3496    1.6282 C   0  0  0  0  0  0  0  0  0  0  0  0
    5.8444   -0.8215   -0.9383 N   0  0  0  0  0  0  0  0  0  0  0  0
    4.4315   -0.4324   -1.0832 C   0  0  0  0  0  0  0  0  0  0  0  0
    3.6948   -1.3348   -2.0967 C   0  0  0  0  0  0  0  0  0  0  0  0
    2.4328   -0.7420   -2.4609 O   0  0  0  0  0  0  0  0  0  0  0  0
    1.4131   -0.7223   -1.4481 C   0  0  0  0  0  0  0  0  0  0  0  0
    0.1075   -0.2487   -2.1154 C   0  0  0  0  0  0  0  0  0  0  0  0
   -0.8947   -0.1685   -1.0867 O   0  0  0  0  0  0  0  0  0  0  0  0
   -2.2103    0.2559   -1.4914 C   0  0  0  0  0  0  0  0  0  0  0  0
   -2.9036   -0.8855   -2.2713 C   0  0  0  0  0  0  0  0  0  0  0  0
   -4.3581   -0.6594   -2.3550 N   0  0  0  0  0  0  0  0  0  0  0  0
   -5.0140    0.1862   -3.2461 C   0  0  0  0  0  0  0  0  0  0  0  0
   -4.3388    0.9453   -4.2331 C   0  0  0  0  0  0  0  0  0  0  0  0
   -5.0515    1.8001   -5.1111 C   0  0  0  0  0  0  0  0  0  0  0  0
   -6.4539    1.9173   -5.0234 C   0  0  0  0  0  0  0  0  0  0  0  0
   -7.1109    1.1636   -4.0437 C   0  0  0  0  0  0  0  0  0  0  0  0
   -6.4102    0.3167   -3.1820 C   0  0  0  0  0  0  0  0  0  0  0  0
   -7.3287   -0.2952   -2.3586 C   0  0  0  0  0  0  0  0  0  0  0  0
   -7.1659   -1.2718   -1.6346 O   0  0  0  0  0  0  0  0  0  0  0  0
   -8.6050    0.1383   -2.7271 N   0  0  0  0  0  0  0  0  0  0  0  0
   -9.8774   -0.2954   -2.1137 C   0  0  0  0  0  0  0  0  0  0  0  0
  -10.6031   -1.2770   -3.0625 C   0  0  0  0  0  0  0  0  0  0  0  0
  -12.0195   -1.5901   -2.5382 C   0  0  0  0  0  0  0  0  0  0  0  0
  -12.8088   -0.3229   -2.3158 C   0  0  0  0  0  0  0  0  0  0  0  0
  -14.0245   -0.2597   -2.4159 O   0  0  0  0  0  0  0  0  0  0  0  0
  -12.1473    0.7944   -1.7953 N   0  0  0  0  0  0  0  0  0  0  0  0
  -10.7502    0.8894   -1.7043 C   0  0  0  0  0  0  0  0  0  0  0  0
  -10.3226    1.8630   -1.0975 O   0  0  0  0  0  0  0  0  0  0  0  0
   -8.4539    1.0785   -3.7539 C   0  0  0  0  0  0  0  0  0  0  0  0
   -9.3932    1.4525   -4.4462 O   0  0  0  0  0  0  0  0  0  0  0  0
    7.5742    1.7477    0.3694 H   0  0  0  0  0  0  0  0  0  0  0  0
    6.0535    1.8193   -0.5112 H   0  0  0  0  0  0  0  0  0  0  0  0
    7.4507    0.6322    2.7778 H   0  0  0  0  0  0  0  0  0  0  0  0
    6.8152    1.1957    6.2608 H   0  0  0  0  0  0  0  0  0  0  0  0
    8.8723    2.5889    6.4517 H   0  0  0  0  0  0  0  0  0  0  0  0
   11.0468   -0.3090    4.1125 H   0  0  0  0  0  0  0  0  0  0  0  0
    4.9057   -3.5794    5.8303 H   0  0  0  0  0  0  0  0  0  0  0  0
    2.5443   -0.1065    3.9835 H   0  0  0  0  0  0  0  0  0  0  0  0
    0.8105    0.9606    2.6025 H   0  0  0  0  0  0  0  0  0  0  0  0
    1.4278    2.3785    0.6578 H   0  0  0  0  0  0  0  0  0  0  0  0
    3.8483    2.7218    0.0818 H   0  0  0  0  0  0  0  0  0  0  0  0
    6.1277   -1.7279   -1.2898 H   0  0  0  0  0  0  0  0  0  0  0  0
    4.3708    0.6069   -1.4290 H   0  0  0  0  0  0  0  0  0  0  0  0
    3.9369   -0.5124   -0.1049 H   0  0  0  0  0  0  0  0  0  0  0  0
    3.5511   -2.3367   -1.6701 H   0  0  0  0  0  0  0  0  0  0  0  0
    4.3135   -1.4399   -2.9979 H   0  0  0  0  0  0  0  0  0  0  0  0
    1.6751   -0.0388   -0.6312 H   0  0  0  0  0  0  0  0  0  0  0  0
    1.2613   -1.7261   -1.0313 H   0  0  0  0  0  0  0  0  0  0  0  0
   -0.1781   -0.9642   -2.8964 H   0  0  0  0  0  0  0  0  0  0  0  0
    0.2684    0.7315   -2.5824 H   0  0  0  0  0  0  0  0  0  0  0  0
   -2.8080    0.4809   -0.5983 H   0  0  0  0  0  0  0  0  0  0  0  0
   -2.1667    1.1704   -2.0976 H   0  0  0  0  0  0  0  0  0  0  0  0
   -2.4703   -0.9843   -3.2733 H   0  0  0  0  0  0  0  0  0  0  0  0
   -2.7198   -1.8291   -1.7410 H   0  0  0  0  0  0  0  0  0  0  0  0
   -4.9557   -1.1464   -1.6957 H   0  0  0  0  0  0  0  0  0  0  0  0
   -3.2604    0.8838   -4.3321 H   0  0  0  0  0  0  0  0  0  0  0  0
   -4.5136    2.3736   -5.8629 H   0  0  0  0  0  0  0  0  0  0  0  0
   -7.0138    2.5699   -5.6907 H   0  0  0  0  0  0  0  0  0  0  0  0
   -9.6366   -0.8312   -1.1859 H   0  0  0  0  0  0  0  0  0  0  0  0
  -10.0113   -2.1960   -3.1698 H   0  0  0  0  0  0  0  0  0  0  0  0
  -10.6833   -0.8296   -4.0630 H   0  0  0  0  0  0  0  0  0  0  0  0
  -12.5538   -2.2252   -3.2555 H   0  0  0  0  0  0  0  0  0  0  0  0
  -11.9638   -2.1499   -1.5955 H   0  0  0  0  0  0  0  0  0  0  0  0
  -12.6986    1.5963   -1.5264 H   0  0  0  0  0  0  0  0  0  0  0  0
  1  2  2  0  0  0  0
  2  3  1  0  0  0  0
  2 28  1  0  0  0  0
  3  4  1  0  0  0  0
  3 57  1  0  0  0  0
  3 58  1  0  0  0  0
  4  5  1  0  0  0  0
  4 27  1  0  0  0  0
  5  6  2  0  0  0  0
  5 59  1  0  0  0  0
  6  7  1  0  0  0  0
  6 22  1  0  0  0  0
  7  8  2  0  0  0  0
  7 20  1  0  0  0  0
  8  9  1  0  0  0  0
  8 17  1  0  0  0  0
  9 10  2  0  0  0  0
  9 15  1  0  0  0  0
 10 11  1  0  0  0  0
 10 60  1  0  0  0  0
 11 12  2  0  0  0  0
 11 61  1  0  0  0  0
 12 13  1  0  0  0  0
 12 14  1  0  0  0  0
 14 15  2  0  0  0  0
 14 62  1  0  0  0  0
 15 16  1  0  0  0  0
 17 18  2  0  0  0  0
 17 19  1  0  0  0  0
 19 20  1  0  0  0  0
 19 63  1  0  0  0  0
 20 21  2  0  0  0  0
 22 23  2  0  0  0  0
 22 27  1  0  0  0  0
 23 24  1  0  0  0  0
 23 64  1  0  0  0  0
 24 25  2  0  0  0  0
 24 65  1  0  0  0  0
 25 26  1  0  0  0  0
 25 66  1  0  0  0  0
 26 27  2  0  0  0  0
 26 67  1  0  0  0  0
 28 29  1  0  0  0  0
 28 68  1  0  0  0  0
 29 30  1  0  0  0  0
 29 69  1  0  0  0  0
 29 70  1  0  0  0  0
 30 31  1  0  0  0  0
 30 71  1  0  0  0  0
 30 72  1  0  0  0  0
 31 32  1  0  0  0  0
 32 33  1  0  0  0  0
 32 73  1  0  0  0  0
 32 74  1  0  0  0  0
 33 34  1  0  0  0  0
 33 75  1  0  0  0  0
 33 76  1  0  0  0  0
 34 35  1  0  0  0  0
 35 36  1  0  0  0  0
 35 77  1  0  0  0  0
 35 78  1  0  0  0  0
 36 37  1  0  0  0  0
 36 79  1  0  0  0  0
 36 80  1  0  0  0  0
 37 38  1  0  0  0  0
 37 81  1  0  0  0  0
 38 39  2  0  0  0  0
 38 43  1  0  0  0  0
 39 40  1  0  0  0  0
 39 82  1  0  0  0  0
 40 41  2  0  0  0  0
 40 83  1  0  0  0  0
 41 42  1  0  0  0  0
 41 84  1  0  0  0  0
 42 43  2  0  0  0  0
 42 55  1  0  0  0  0
 43 44  1  0  0  0  0
 44 45  2  0  0  0  0
 44 46  1  0  0  0  0
 46 47  1  0  0  0  0
 46 55  1  0  0  0  0
 47 48  1  0  0  0  0
 47 53  1  0  0  0  0
 47 85  1  0  0  0  0
 48 49  1  0  0  0  0
 48 86  1  0  0  0  0
 48 87  1  0  0  0  0
 49 50  1  0  0  0  0
 49 88  1  0  0  0  0
 49 89  1  0  0  0  0
 50 51  2  0  0  0  0
 50 52  1  0  0  0  0
 52 53  1  0  0  0  0
 52 90  1  0  0  0  0
 53 54  2  0  0  0  0
 55 56  2  0  0  0  0
M  END
$$$$
protac3895RUN2
  chem.cr 07102519423D
protac3895RUN2
 90 96  0  0  0  0  0  0  0  0999 V2000
   -1.9172   -5.7206    3.4328 O   0  0  0  0  0  0  0  0  0  0  0  0
   -2.0080   -5.2473    2.3082 C   0  0  0  0  0  0  0  0  0  0  0  0
   -1.1587   -5.6880    1.1342 C   0  0  0  0  0  0  0  0  0  0  0  0
    0.0901   -4.9128    0.9866 N   0  0  0  0  0  0  0  0  0  0  0  0
    0.7892   -4.4805    2.1219 C   0  0  0  0  0  0  0  0  0  0  0  0
    1.3995   -3.2976    1.8933 C   0  0  0  0  0  0  0  0  0  0  0  0
    2.0039   -2.4806    2.8085 C   0  0  0  0  0  0  0  0  0  0  0  0
    2.3282   -2.8043    4.0800 C   0  0  0  0  0  0  0  0  0  0  0  0
    2.1846   -4.0464    4.6647 C   0  0  0  0  0  0  0  0  0  0  0  0
    3.1219   -5.0557    4.3781 C   0  0  0  0  0  0  0  0  0  0  0  0
    2.9657   -6.3457    4.9161 C   0  0  0  0  0  0  0  0  0  0  0  0
    1.8670   -6.6304    5.7426 C   0  0  0  0  0  0  0  0  0  0  0  0
    1.6588   -8.2474    6.3953 Cl  0  0  0  0  0  0  0  0  0  0  0  0
    0.9302   -5.6270    6.0384 C   0  0  0  0  0  0  0  0  0  0  0  0
    1.0894   -4.3349    5.5084 C   0  0  0  0  0  0  0  0  0  0  0  0
   -0.1228   -3.1046    5.8666 Cl  0  0  0  0  0  0  0  0  0  0  0  0
    2.8532   -1.7710    4.7366 C   0  0  0  0  0  0  0  0  0  0  0  0
    3.2755   -1.6261    5.8758 O   0  0  0  0  0  0  0  0  0  0  0  0
    2.9103   -0.6958    3.8717 N   0  0  0  0  0  0  0  0  0  0  0  0
    2.3339   -1.1675    2.6944 C   0  0  0  0  0  0  0  0  0  0  0  0
    2.1376   -0.3141    1.8393 O   0  0  0  0  0  0  0  0  0  0  0  0
    1.2024   -3.0431    0.5286 C   0  0  0  0  0  0  0  0  0  0  0  0
    1.9005   -2.1997   -0.3599 C   0  0  0  0  0  0  0  0  0  0  0  0
    1.6082   -2.2510   -1.7394 C   0  0  0  0  0  0  0  0  0  0  0  0
    0.6723   -3.1736   -2.2490 C   0  0  0  0  0  0  0  0  0  0  0  0
    0.0551   -4.0972   -1.3843 C   0  0  0  0  0  0  0  0  0  0  0  0
    0.3501   -4.0127   -0.0151 C   0  0  0  0  0  0  0  0  0  0  0  0
   -2.8043   -4.1130    2.1158 N   0  0  0  0  0  0  0  0  0  0  0  0
   -2.7956   -2.9840    3.0549 C   0  0  0  0  0  0  0  0  0  0  0  0
   -1.8863   -1.8783    2.5098 C   0  0  0  0  0  0  0  0  0  0  0  0
   -2.2095   -0.6575    3.1812 O   0  0  0  0  0  0  0  0  0  0  0  0
   -1.7166    0.5348    2.5480 C   0  0  0  0  0  0  0  0  0  0  0  0
   -2.6036    0.8627    1.3224 C   0  0  0  0  0  0  0  0  0  0  0  0
   -1.7670    1.0581    0.1746 O   0  0  0  0  0  0  0  0  0  0  0  0
   -1.3447   -0.1196   -0.5343 C   0  0  0  0  0  0  0  0  0  0  0  0
   -0.4283    0.2949   -1.7084 C   0  0  0  0  0  0  0  0  0  0  0  0
   -0.7427    1.6264   -2.2533 N   0  0  0  0  0  0  0  0  0  0  0  0
   -0.1877    2.8132   -1.7811 C   0  0  0  0  0  0  0  0  0  0  0  0
    0.5897    2.8752   -0.5958 C   0  0  0  0  0  0  0  0  0  0  0  0
    1.1772    4.0890   -0.1680 C   0  0  0  0  0  0  0  0  0  0  0  0
    0.9929    5.2712   -0.9099 C   0  0  0  0  0  0  0  0  0  0  0  0
    0.1905    5.2081   -2.0559 C   0  0  0  0  0  0  0  0  0  0  0  0
   -0.3821    4.0086   -2.4845 C   0  0  0  0  0  0  0  0  0  0  0  0
   -1.0614    4.2576   -3.6548 C   0  0  0  0  0  0  0  0  0  0  0  0
   -1.4502    3.4393   -4.4847 O   0  0  0  0  0  0  0  0  0  0  0  0
   -0.8871    5.6060   -3.9823 N   0  0  0  0  0  0  0  0  0  0  0  0
   -1.0971    6.1778   -5.3251 C   0  0  0  0  0  0  0  0  0  0  0  0
    0.2000    6.0279   -6.1600 C   0  0  0  0  0  0  0  0  0  0  0  0
    0.1400    6.8884   -7.4399 C   0  0  0  0  0  0  0  0  0  0  0  0
   -0.1485    8.3278   -7.0928 C   0  0  0  0  0  0  0  0  0  0  0  0
    0.2840    9.2784   -7.7272 O   0  0  0  0  0  0  0  0  0  0  0  0
   -1.1206    8.5934   -6.1244 N   0  0  0  0  0  0  0  0  0  0  0  0
   -1.6288    7.6080   -5.2639 C   0  0  0  0  0  0  0  0  0  0  0  0
   -2.6221    7.9269   -4.6224 O   0  0  0  0  0  0  0  0  0  0  0  0
   -0.1360    6.1948   -2.9518 C   0  0  0  0  0  0  0  0  0  0  0  0
    0.4242    7.2798   -3.0840 O   0  0  0  0  0  0  0  0  0  0  0  0
   -0.8874   -6.7384    1.2888 H   0  0  0  0  0  0  0  0  0  0  0  0
   -1.7397   -5.6176    0.2113 H   0  0  0  0  0  0  0  0  0  0  0  0
    0.6433   -5.0324    3.0446 H   0  0  0  0  0  0  0  0  0  0  0  0
    3.9684   -4.8364    3.7301 H   0  0  0  0  0  0  0  0  0  0  0  0
    3.6924   -7.1200    4.6909 H   0  0  0  0  0  0  0  0  0  0  0  0
    0.0721   -5.8521    6.6665 H   0  0  0  0  0  0  0  0  0  0  0  0
    2.8661    0.2675    4.1710 H   0  0  0  0  0  0  0  0  0  0  0  0
    2.7129   -1.5698   -0.0271 H   0  0  0  0  0  0  0  0  0  0  0  0
    2.1451   -1.5948   -2.4184 H   0  0  0  0  0  0  0  0  0  0  0  0
    0.4895   -3.2192   -3.3189 H   0  0  0  0  0  0  0  0  0  0  0  0
   -0.5761   -4.8880   -1.7803 H   0  0  0  0  0  0  0  0  0  0  0  0
   -3.0997   -3.9140    1.1699 H   0  0  0  0  0  0  0  0  0  0  0  0
   -2.4429   -3.3042    4.0427 H   0  0  0  0  0  0  0  0  0  0  0  0
   -3.8166   -2.5963    3.1668 H   0  0  0  0  0  0  0  0  0  0  0  0
   -2.0692   -1.7902    1.4348 H   0  0  0  0  0  0  0  0  0  0  0  0
   -0.8331   -2.1435    2.6607 H   0  0  0  0  0  0  0  0  0  0  0  0
   -0.6684    0.4150    2.2463 H   0  0  0  0  0  0  0  0  0  0  0  0
   -1.7659    1.3774    3.2482 H   0  0  0  0  0  0  0  0  0  0  0  0
   -3.1598    1.7850    1.5316 H   0  0  0  0  0  0  0  0  0  0  0  0
   -3.3440    0.0744    1.1360 H   0  0  0  0  0  0  0  0  0  0  0  0
   -0.7795   -0.7995    0.1163 H   0  0  0  0  0  0  0  0  0  0  0  0
   -2.2204   -0.6520   -0.9252 H   0  0  0  0  0  0  0  0  0  0  0  0
    0.6112    0.2798   -1.3638 H   0  0  0  0  0  0  0  0  0  0  0  0
   -0.5017   -0.4566   -2.5015 H   0  0  0  0  0  0  0  0  0  0  0  0
   -1.3213    1.6995   -3.0828 H   0  0  0  0  0  0  0  0  0  0  0  0
    0.7355    1.9889    0.0142 H   0  0  0  0  0  0  0  0  0  0  0  0
    1.7698    4.1052    0.7428 H   0  0  0  0  0  0  0  0  0  0  0  0
    1.4539    6.2083   -0.6030 H   0  0  0  0  0  0  0  0  0  0  0  0
   -1.8868    5.5896   -5.8132 H   0  0  0  0  0  0  0  0  0  0  0  0
    0.3671    4.9691   -6.4025 H   0  0  0  0  0  0  0  0  0  0  0  0
    1.0588    6.3529   -5.5564 H   0  0  0  0  0  0  0  0  0  0  0  0
    1.0949    6.8299   -7.9774 H   0  0  0  0  0  0  0  0  0  0  0  0
   -0.6363    6.5151   -8.1181 H   0  0  0  0  0  0  0  0  0  0  0  0
   -1.4338    9.5441   -5.9980 H   0  0  0  0  0  0  0  0  0  0  0  0
  1  2  2  0  0  0  0
  2  3  1  0  0  0  0
  2 28  1  0  0  0  0
  3  4  1  0  0  0  0
  3 57  1  0  0  0  0
  3 58  1  0  0  0  0
  4  5  1  0  0  0  0
  4 27  1  0  0  0  0
  5  6  2  0  0  0  0
  5 59  1  0  0  0  0
  6  7  1  0  0  0  0
  6 22  1  0  0  0  0
  7  8  2  0  0  0  0
  7 20  1  0  0  0  0
  8  9  1  0  0  0  0
  8 17  1  0  0  0  0
  9 10  2  0  0  0  0
  9 15  1  0  0  0  0
 10 11  1  0  0  0  0
 10 60  1  0  0  0  0
 11 12  2  0  0  0  0
 11 61  1  0  0  0  0
 12 13  1  0  0  0  0
 12 14  1  0  0  0  0
 14 15  2  0  0  0  0
 14 62  1  0  0  0  0
 15 16  1  0  0  0  0
 17 18  2  0  0  0  0
 17 19  1  0  0  0  0
 19 20  1  0  0  0  0
 19 63  1  0  0  0  0
 20 21  2  0  0  0  0
 22 23  2  0  0  0  0
 22 27  1  0  0  0  0
 23 24  1  0  0  0  0
 23 64  1  0  0  0  0
 24 25  2  0  0  0  0
 24 65  1  0  0  0  0
 25 26  1  0  0  0  0
 25 66  1  0  0  0  0
 26 27  2  0  0  0  0
 26 67  1  0  0  0  0
 28 29  1  0  0  0  0
 28 68  1  0  0  0  0
 29 30  1  0  0  0  0
 29 69  1  0  0  0  0
 29 70  1  0  0  0  0
 30 31  1  0  0  0  0
 30 71  1  0  0  0  0
 30 72  1  0  0  0  0
 31 32  1  0  0  0  0
 32 33  1  0  0  0  0
 32 73  1  0  0  0  0
 32 74  1  0  0  0  0
 33 34  1  0  0  0  0
 33 75  1  0  0  0  0
 33 76  1  0  0  0  0
 34 35  1  0  0  0  0
 35 36  1  0  0  0  0
 35 77  1  0  0  0  0
 35 78  1  0  0  0  0
 36 37  1  0  0  0  0
 36 79  1  0  0  0  0
 36 80  1  0  0  0  0
 37 38  1  0  0  0  0
 37 81  1  0  0  0  0
 38 39  2  0  0  0  0
 38 43  1  0  0  0  0
 39 40  1  0  0  0  0
 39 82  1  0  0  0  0
 40 41  2  0  0  0  0
 40 83  1  0  0  0  0
 41 42  1  0  0  0  0
 41 84  1  0  0  0  0
 42 43  2  0  0  0  0
 42 55  1  0  0  0  0
 43 44  1  0  0  0  0
 44 45  2  0  0  0  0
 44 46  1  0  0  0  0
 46 47  1  0  0  0  0
 46 55  1  0  0  0  0
 47 48  1  0  0  0  0
 47 53  1  0  0  0  0
 47 85  1  0  0  0  0
 48 49  1  0  0  0  0
 48 86  1  0  0  0  0
 48 87  1  0  0  0  0
 49 50  1  0  0  0  0
 49 88  1  0  0  0  0
 49 89  1  0  0  0  0
 50 51  2  0  0  0  0
 50 52  1  0  0  0  0
 52 53  1  0  0  0  0
 52 90  1  0  0  0  0
 53 54  2  0  0  0  0
 55 56  2  0  0  0  0
M  END
$$$$
protac3895RUN2
  chem.cr 07102519423D
protac3895RUN2
 90 96  0  0  0  0  0  0  0  0999 V2000
   -0.2246   -5.9683   -1.3085 O   0  0  0  0  0  0  0  0  0  0  0  0
   -0.0527   -4.7803   -1.0752 C   0  0  0  0  0  0  0  0  0  0  0  0
    1.2390   -4.0759   -1.4124 C   0  0  0  0  0  0  0  0  0  0  0  0
    1.6033   -2.9346   -0.5574 N   0  0  0  0  0  0  0  0  0  0  0  0
    1.6315   -3.0900    0.8336 C   0  0  0  0  0  0  0  0  0  0  0  0
    2.6633   -2.4132    1.3922 C   0  0  0  0  0  0  0  0  0  0  0  0
    3.0995   -2.4862    2.6939 C   0  0  0  0  0  0  0  0  0  0  0  0
    2.4909   -3.1583    3.7068 C   0  0  0  0  0  0  0  0  0  0  0  0
    1.3364   -3.9123    3.6378 C   0  0  0  0  0  0  0  0  0  0  0  0
    1.4371   -5.2907    3.3636 C   0  0  0  0  0  0  0  0  0  0  0  0
    0.2838   -6.0885    3.2834 C   0  0  0  0  0  0  0  0  0  0  0  0
   -0.9788   -5.5119    3.4943 C   0  0  0  0  0  0  0  0  0  0  0  0
   -2.4206   -6.5188    3.4227 Cl  0  0  0  0  0  0  0  0  0  0  0  0
   -1.0890   -4.1376    3.7714 C   0  0  0  0  0  0  0  0  0  0  0  0
    0.0641   -3.3376    3.8388 C   0  0  0  0  0  0  0  0  0  0  0  0
   -0.0995   -1.6133    4.1764 Cl  0  0  0  0  0  0  0  0  0  0  0  0
    3.1815   -3.0847    4.8443 C   0  0  0  0  0  0  0  0  0  0  0  0
    3.0297   -3.5779    5.9556 O   0  0  0  0  0  0  0  0  0  0  0  0
    4.2952   -2.3060    4.6189 N   0  0  0  0  0  0  0  0  0  0  0  0
    4.2377   -2.0027    3.2611 C   0  0  0  0  0  0  0  0  0  0  0  0
    5.2447   -1.4576    2.8339 O   0  0  0  0  0  0  0  0  0  0  0  0
    3.2423   -1.6991    0.3188 C   0  0  0  0  0  0  0  0  0  0  0  0
    4.1603   -0.6243    0.2560 C   0  0  0  0  0  0  0  0  0  0  0  0
    4.5602   -0.1197   -1.0005 C   0  0  0  0  0  0  0  0  0  0  0  0
    4.0078   -0.6272   -2.1925 C   0  0  0  0  0  0  0  0  0  0  0  0
    2.9931   -1.5973   -2.1344 C   0  0  0  0  0  0  0  0  0  0  0  0
    2.6238   -2.0865   -0.8747 C   0  0  0  0  0  0  0  0  0  0  0  0
   -1.1507   -3.9926   -0.6880 N   0  0  0  0  0  0  0  0  0  0  0  0
   -2.5383   -4.4913   -0.6997 C   0  0  0  0  0  0  0  0  0  0  0  0
   -3.3211   -4.1864    0.5945 C   0  0  0  0  0  0  0  0  0  0  0  0
   -3.6672   -2.7952    0.6019 O   0  0  0  0  0  0  0  0  0  0  0  0
   -2.7886   -1.9246    1.3264 C   0  0  0  0  0  0  0  0  0  0  0  0
   -2.7680   -0.5859    0.5744 C   0  0  0  0  0  0  0  0  0  0  0  0
   -1.3940   -0.2745    0.3169 O   0  0  0  0  0  0  0  0  0  0  0  0
   -1.1654    0.8608   -0.5251 C   0  0  0  0  0  0  0  0  0  0  0  0
   -1.2668    0.4040   -1.9994 C   0  0  0  0  0  0  0  0  0  0  0  0
   -1.0696    1.5565   -2.8904 N   0  0  0  0  0  0  0  0  0  0  0  0
    0.0824    2.3308   -2.8131 C   0  0  0  0  0  0  0  0  0  0  0  0
    1.3725    1.7605   -2.7681 C   0  0  0  0  0  0  0  0  0  0  0  0
    2.5170    2.5741   -2.5960 C   0  0  0  0  0  0  0  0  0  0  0  0
    2.3888    3.9712   -2.4514 C   0  0  0  0  0  0  0  0  0  0  0  0
    1.1060    4.5238   -2.5098 C   0  0  0  0  0  0  0  0  0  0  0  0
   -0.0204    3.7198   -2.7038 C   0  0  0  0  0  0  0  0  0  0  0  0
   -1.1332    4.5256   -2.6480 C   0  0  0  0  0  0  0  0  0  0  0  0
   -2.2970    4.1693   -2.5060 O   0  0  0  0  0  0  0  0  0  0  0  0
   -0.7087    5.8309   -2.3517 N   0  0  0  0  0  0  0  0  0  0  0  0
   -1.5476    6.8766   -1.7321 C   0  0  0  0  0  0  0  0  0  0  0  0
   -1.8760    6.4794   -0.2740 C   0  0  0  0  0  0  0  0  0  0  0  0
   -2.9029    7.4537    0.3352 C   0  0  0  0  0  0  0  0  0  0  0  0
   -4.1369    7.5572   -0.5300 C   0  0  0  0  0  0  0  0  0  0  0  0
   -5.2479    7.8011   -0.0887 O   0  0  0  0  0  0  0  0  0  0  0  0
   -3.9837    7.5530   -1.9205 N   0  0  0  0  0  0  0  0  0  0  0  0
   -2.7913    7.1882   -2.5608 C   0  0  0  0  0  0  0  0  0  0  0  0
   -2.7652    7.3772   -3.7698 O   0  0  0  0  0  0  0  0  0  0  0  0
    0.6893    5.8191   -2.3251 C   0  0  0  0  0  0  0  0  0  0  0  0
    1.3407    6.7567   -1.8703 O   0  0  0  0  0  0  0  0  0  0  0  0
    2.0517   -4.8109   -1.3567 H   0  0  0  0  0  0  0  0  0  0  0  0
    1.1726   -3.7396   -2.4508 H   0  0  0  0  0  0  0  0  0  0  0  0
    0.9262   -3.7879    1.2683 H   0  0  0  0  0  0  0  0  0  0  0  0
    2.4154   -5.7398    3.2153 H   0  0  0  0  0  0  0  0  0  0  0  0
    0.3686   -7.1485    3.0671 H   0  0  0  0  0  0  0  0  0  0  0  0
   -2.0645   -3.6933    3.9454 H   0  0  0  0  0  0  0  0  0  0  0  0
    5.1530   -2.3842    5.1426 H   0  0  0  0  0  0  0  0  0  0  0  0
    4.5398   -0.1310    1.1383 H   0  0  0  0  0  0  0  0  0  0  0  0
    5.2902    0.6806   -1.0456 H   0  0  0  0  0  0  0  0  0  0  0  0
    4.3323   -0.2325   -3.1525 H   0  0  0  0  0  0  0  0  0  0  0  0
    2.5073   -1.9418   -3.0394 H   0  0  0  0  0  0  0  0  0  0  0  0
   -0.9903   -3.0153   -0.4677 H   0  0  0  0  0  0  0  0  0  0  0  0
   -2.5435   -5.5805   -0.8479 H   0  0  0  0  0  0  0  0  0  0  0  0
   -3.0668   -4.0495   -1.5541 H   0  0  0  0  0  0  0  0  0  0  0  0
   -2.7332   -4.4664    1.4751 H   0  0  0  0  0  0  0  0  0  0  0  0
   -4.2409   -4.7885    0.5958 H   0  0  0  0  0  0  0  0  0  0  0  0
   -1.7722   -2.3335    1.3853 H   0  0  0  0  0  0  0  0  0  0  0  0
   -3.1521   -1.7759    2.3507 H   0  0  0  0  0  0  0  0  0  0  0  0
   -3.2406    0.1970    1.1814 H   0  0  0  0  0  0  0  0  0  0  0  0
   -3.3342   -0.6794   -0.3608 H   0  0  0  0  0  0  0  0  0  0  0  0
   -1.8927    1.6619   -0.3224 H   0  0  0  0  0  0  0  0  0  0  0  0
   -0.1624    1.2668   -0.3381 H   0  0  0  0  0  0  0  0  0  0  0  0
   -0.5116   -0.3677   -2.1990 H   0  0  0  0  0  0  0  0  0  0  0  0
   -2.2554   -0.0313   -2.1854 H   0  0  0  0  0  0  0  0  0  0  0  0
   -1.9019    2.0990   -3.0945 H   0  0  0  0  0  0  0  0  0  0  0  0
    1.4889    0.6850   -2.8508 H   0  0  0  0  0  0  0  0  0  0  0  0
    3.5005    2.1155   -2.5491 H   0  0  0  0  0  0  0  0  0  0  0  0
    3.2562    4.6037   -2.2811 H   0  0  0  0  0  0  0  0  0  0  0  0
   -0.9592    7.8051   -1.7098 H   0  0  0  0  0  0  0  0  0  0  0  0
   -0.9545    6.4560    0.3251 H   0  0  0  0  0  0  0  0  0  0  0  0
   -2.2985    5.4639   -0.2543 H   0  0  0  0  0  0  0  0  0  0  0  0
   -3.1943    7.1112    1.3353 H   0  0  0  0  0  0  0  0  0  0  0  0
   -2.4637    8.4514    0.4553 H   0  0  0  0  0  0  0  0  0  0  0  0
   -4.7847    7.7609   -2.4964 H   0  0  0  0  0  0  0  0  0  0  0  0
  1  2  2  0  0  0  0
  2  3  1  0  0  0  0
  2 28  1  0  0  0  0
  3  4  1  0  0  0  0
  3 57  1  0  0  0  0
  3 58  1  0  0  0  0
  4  5  1  0  0  0  0
  4 27  1  0  0  0  0
  5  6  2  0  0  0  0
  5 59  1  0  0  0  0
  6  7  1  0  0  0  0
  6 22  1  0  0  0  0
  7  8  2  0  0  0  0
  7 20  1  0  0  0  0
  8  9  1  0  0  0  0
  8 17  1  0  0  0  0
  9 10  2  0  0  0  0
  9 15  1  0  0  0  0
 10 11  1  0  0  0  0
 10 60  1  0  0  0  0
 11 12  2  0  0  0  0
 11 61  1  0  0  0  0
 12 13  1  0  0  0  0
 12 14  1  0  0  0  0
 14 15  2  0  0  0  0
 14 62  1  0  0  0  0
 15 16  1  0  0  0  0
 17 18  2  0  0  0  0
 17 19  1  0  0  0  0
 19 20  1  0  0  0  0
 19 63  1  0  0  0  0
 20 21  2  0  0  0  0
 22 23  2  0  0  0  0
 22 27  1  0  0  0  0
 23 24  1  0  0  0  0
 23 64  1  0  0  0  0
 24 25  2  0  0  0  0
 24 65  1  0  0  0  0
 25 26  1  0  0  0  0
 25 66  1  0  0  0  0
 26 27  2  0  0  0  0
 26 67  1  0  0  0  0
 28 29  1  0  0  0  0
 28 68  1  0  0  0  0
 29 30  1  0  0  0  0
 29 69  1  0  0  0  0
 29 70  1  0  0  0  0
 30 31  1  0  0  0  0
 30 71  1  0  0  0  0
 30 72  1  0  0  0  0
 31 32  1  0  0  0  0
 32 33  1  0  0  0  0
 32 73  1  0  0  0  0
 32 74  1  0  0  0  0
 33 34  1  0  0  0  0
 33 75  1  0  0  0  0
 33 76  1  0  0  0  0
 34 35  1  0  0  0  0
 35 36  1  0  0  0  0
 35 77  1  0  0  0  0
 35 78  1  0  0  0  0
 36 37  1  0  0  0  0
 36 79  1  0  0  0  0
 36 80  1  0  0  0  0
 37 38  1  0  0  0  0
 37 81  1  0  0  0  0
 38 39  2  0  0  0  0
 38 43  1  0  0  0  0
 39 40  1  0  0  0  0
 39 82  1  0  0  0  0
 40 41  2  0  0  0  0
 40 83  1  0  0  0  0
 41 42  1  0  0  0  0
 41 84  1  0  0  0  0
 42 43  2  0  0  0  0
 42 55  1  0  0  0  0
 43 44  1  0  0  0  0
 44 45  2  0  0  0  0
 44 46  1  0  0  0  0
 46 47  1  0  0  0  0
 46 55  1  0  0  0  0
 47 48  1  0  0  0  0
 47 53  1  0  0  0  0
 47 85  1  0  0  0  0
 48 49  1  0  0  0  0
 48 86  1  0  0  0  0
 48 87  1  0  0  0  0
 49 50  1  0  0  0  0
 49 88  1  0  0  0  0
 49 89  1  0  0  0  0
 50 51  2  0  0  0  0
 50 52  1  0  0  0  0
 52 53  1  0  0  0  0
 52 90  1  0  0  0  0
 53 54  2  0  0  0  0
 55 56  2  0  0  0  0
M  END
$$$$
protac3895RUN2
  chem.cr 07102519423D
protac3895RUN2
 90 96  0  0  0  0  0  0  0  0999 V2000
    3.3402   -3.3019   -3.1368 O   0  0  0  0  0  0  0  0  0  0  0  0
    3.3302   -2.0839   -3.0354 C   0  0  0  0  0  0  0  0  0  0  0  0
    4.3012   -1.1737   -3.7616 C   0  0  0  0  0  0  0  0  0  0  0  0
    4.7395   -0.0083   -2.9637 N   0  0  0  0  0  0  0  0  0  0  0  0
    5.4211   -0.2546   -1.7751 C   0  0  0  0  0  0  0  0  0  0  0  0
    5.0750    0.6022   -0.7824 C   0  0  0  0  0  0  0  0  0  0  0  0
    5.5978    0.6320    0.4982 C   0  0  0  0  0  0  0  0  0  0  0  0
    6.5358   -0.2263    0.9875 C   0  0  0  0  0  0  0  0  0  0  0  0
    7.1576   -1.2556    0.3096 C   0  0  0  0  0  0  0  0  0  0  0  0
    8.3577   -0.9908   -0.3776 C   0  0  0  0  0  0  0  0  0  0  0  0
    8.9831   -2.0000   -1.1283 C   0  0  0  0  0  0  0  0  0  0  0  0
    8.4202   -3.2848   -1.1803 C   0  0  0  0  0  0  0  0  0  0  0  0
    9.2104   -4.5503   -2.1133 Cl  0  0  0  0  0  0  0  0  0  0  0  0
    7.2267   -3.5610   -0.4906 C   0  0  0  0  0  0  0  0  0  0  0  0
    6.5910   -2.5492    0.2505 C   0  0  0  0  0  0  0  0  0  0  0  0
    5.0542   -2.9005    1.0411 Cl  0  0  0  0  0  0  0  0  0  0  0  0
    6.8761    0.0462    2.2471 C   0  0  0  0  0  0  0  0  0  0  0  0
    7.6856   -0.4407    3.0265 O   0  0  0  0  0  0  0  0  0  0  0  0
    6.1235    1.1205    2.6621 N   0  0  0  0  0  0  0  0  0  0  0  0
    5.3761    1.4814    1.5431 C   0  0  0  0  0  0  0  0  0  0  0  0
    4.7154    2.4904    1.7193 O   0  0  0  0  0  0  0  0  0  0  0  0
    4.0874    1.4283   -1.3783 C   0  0  0  0  0  0  0  0  0  0  0  0
    3.2210    2.4353   -0.8907 C   0  0  0  0  0  0  0  0  0  0  0  0
    2.3152    3.0716   -1.7667 C   0  0  0  0  0  0  0  0  0  0  0  0
    2.2213    2.6968   -3.1202 C   0  0  0  0  0  0  0  0  0  0  0  0
    3.0335    1.6652   -3.6113 C   0  0  0  0  0  0  0  0  0  0  0  0
    3.9339    1.0618   -2.7255 C   0  0  0  0  0  0  0  0  0  0  0  0
    2.3133   -1.4569   -2.3005 N   0  0  0  0  0  0  0  0  0  0  0  0
    1.3447   -2.1685   -1.4586 C   0  0  0  0  0  0  0  0  0  0  0  0
    1.0071   -1.3269   -0.2046 C   0  0  0  0  0  0  0  0  0  0  0  0
   -0.0489   -1.9409    0.5672 O   0  0  0  0  0  0  0  0  0  0  0  0
   -1.3175   -2.2343   -0.0662 C   0  0  0  0  0  0  0  0  0  0  0  0
   -1.9265   -0.9657   -0.7033 C   0  0  0  0  0  0  0  0  0  0  0  0
   -3.1210   -1.3668   -1.3976 O   0  0  0  0  0  0  0  0  0  0  0  0
   -3.3516   -0.7943   -2.7023 C   0  0  0  0  0  0  0  0  0  0  0  0
   -3.4416    0.7499   -2.6272 C   0  0  0  0  0  0  0  0  0  0  0  0
   -4.4342    1.1626   -1.6237 N   0  0  0  0  0  0  0  0  0  0  0  0
   -4.0707    1.6488   -0.3753 C   0  0  0  0  0  0  0  0  0  0  0  0
   -2.9780    2.5259   -0.1781 C   0  0  0  0  0  0  0  0  0  0  0  0
   -2.6041    2.9441    1.1226 C   0  0  0  0  0  0  0  0  0  0  0  0
   -3.3224    2.4971    2.2520 C   0  0  0  0  0  0  0  0  0  0  0  0
   -4.4137    1.6451    2.0398 C   0  0  0  0  0  0  0  0  0  0  0  0
   -4.7789    1.2363    0.7580 C   0  0  0  0  0  0  0  0  0  0  0  0
   -5.8736    0.4147    0.8639 C   0  0  0  0  0  0  0  0  0  0  0  0
   -6.6494    0.0770   -0.0248 O   0  0  0  0  0  0  0  0  0  0  0  0
   -6.2377    0.3454    2.2101 N   0  0  0  0  0  0  0  0  0  0  0  0
   -7.4778   -0.2925    2.7013 C   0  0  0  0  0  0  0  0  0  0  0  0
   -8.6779    0.6759    2.6001 C   0  0  0  0  0  0  0  0  0  0  0  0
   -8.6544    1.6903    3.7649 C   0  0  0  0  0  0  0  0  0  0  0  0
   -8.5403    1.0030    5.1090 C   0  0  0  0  0  0  0  0  0  0  0  0
   -9.0410    1.4433    6.1324 O   0  0  0  0  0  0  0  0  0  0  0  0
   -7.9241   -0.2523    5.1919 N   0  0  0  0  0  0  0  0  0  0  0  0
   -7.3403   -0.8990    4.0919 C   0  0  0  0  0  0  0  0  0  0  0  0
   -6.9106   -2.0270    4.2885 O   0  0  0  0  0  0  0  0  0  0  0  0
   -5.2911    1.0852    2.9393 C   0  0  0  0  0  0  0  0  0  0  0  0
   -5.3823    1.3195    4.1374 O   0  0  0  0  0  0  0  0  0  0  0  0
    5.1846   -1.7605   -4.0452 H   0  0  0  0  0  0  0  0  0  0  0  0
    3.8354   -0.8236   -4.6879 H   0  0  0  0  0  0  0  0  0  0  0  0
    6.1234   -1.0779   -1.8036 H   0  0  0  0  0  0  0  0  0  0  0  0
    8.7901    0.0053   -0.3399 H   0  0  0  0  0  0  0  0  0  0  0  0
    9.9021   -1.7872   -1.6670 H   0  0  0  0  0  0  0  0  0  0  0  0
    6.7895   -4.5544   -0.5392 H   0  0  0  0  0  0  0  0  0  0  0  0
    6.3733    1.7441    3.4139 H   0  0  0  0  0  0  0  0  0  0  0  0
    3.1834    2.7441    0.1358 H   0  0  0  0  0  0  0  0  0  0  0  0
    1.6768    3.8647   -1.3891 H   0  0  0  0  0  0  0  0  0  0  0  0
    1.5125    3.1962   -3.7763 H   0  0  0  0  0  0  0  0  0  0  0  0
    2.9657    1.3496   -4.6484 H   0  0  0  0  0  0  0  0  0  0  0  0
    2.3717   -0.4478   -2.2171 H   0  0  0  0  0  0  0  0  0  0  0  0
    1.7587   -3.1388   -1.1491 H   0  0  0  0  0  0  0  0  0  0  0  0
    0.4461   -2.3555   -2.0606 H   0  0  0  0  0  0  0  0  0  0  0  0
    0.7363   -0.3045   -0.4922 H   0  0  0  0  0  0  0  0  0  0  0  0
    1.9109   -1.2508    0.4131 H   0  0  0  0  0  0  0  0  0  0  0  0
   -2.0202   -2.6201    0.6835 H   0  0  0  0  0  0  0  0  0  0  0  0
   -1.2038   -3.0171   -0.8270 H   0  0  0  0  0  0  0  0  0  0  0  0
   -1.2076   -0.5167   -1.3962 H   0  0  0  0  0  0  0  0  0  0  0  0
   -2.1630   -0.2395    0.0845 H   0  0  0  0  0  0  0  0  0  0  0  0
   -2.5531   -1.0858   -3.3962 H   0  0  0  0  0  0  0  0  0  0  0  0
   -4.2960   -1.1835   -3.1054 H   0  0  0  0  0  0  0  0  0  0  0  0
   -2.4508    1.1577   -2.3985 H   0  0  0  0  0  0  0  0  0  0  0  0
   -3.7367    1.1391   -3.6107 H   0  0  0  0  0  0  0  0  0  0  0  0
   -5.2927    0.6200   -1.6051 H   0  0  0  0  0  0  0  0  0  0  0  0
   -2.4187    2.8936   -1.0302 H   0  0  0  0  0  0  0  0  0  0  0  0
   -1.7589    3.6134    1.2561 H   0  0  0  0  0  0  0  0  0  0  0  0
   -3.0466    2.8052    3.2581 H   0  0  0  0  0  0  0  0  0  0  0  0
   -7.6775   -1.1330    2.0214 H   0  0  0  0  0  0  0  0  0  0  0  0
   -9.6097    0.0966    2.6421 H   0  0  0  0  0  0  0  0  0  0  0  0
   -8.6636    1.1956    1.6334 H   0  0  0  0  0  0  0  0  0  0  0  0
   -7.8107    2.3806    3.6477 H   0  0  0  0  0  0  0  0  0  0  0  0
   -9.5618    2.3056    3.7464 H   0  0  0  0  0  0  0  0  0  0  0  0
   -7.8711   -0.6995    6.0938 H   0  0  0  0  0  0  0  0  0  0  0  0
  1  2  2  0  0  0  0
  2  3  1  0  0  0  0
  2 28  1  0  0  0  0
  3  4  1  0  0  0  0
  3 57  1  0  0  0  0
  3 58  1  0  0  0  0
  4  5  1  0  0  0  0
  4 27  1  0  0  0  0
  5  6  2  0  0  0  0
  5 59  1  0  0  0  0
  6  7  1  0  0  0  0
  6 22  1  0  0  0  0
  7  8  2  0  0  0  0
  7 20  1  0  0  0  0
  8  9  1  0  0  0  0
  8 17  1  0  0  0  0
  9 10  2  0  0  0  0
  9 15  1  0  0  0  0
 10 11  1  0  0  0  0
 10 60  1  0  0  0  0
 11 12  2  0  0  0  0
 11 61  1  0  0  0  0
 12 13  1  0  0  0  0
 12 14  1  0  0  0  0
 14 15  2  0  0  0  0
 14 62  1  0  0  0  0
 15 16  1  0  0  0  0
 17 18  2  0  0  0  0
 17 19  1  0  0  0  0
 19 20  1  0  0  0  0
 19 63  1  0  0  0  0
 20 21  2  0  0  0  0
 22 23  2  0  0  0  0
 22 27  1  0  0  0  0
 23 24  1  0  0  0  0
 23 64  1  0  0  0  0
 24 25  2  0  0  0  0
 24 65  1  0  0  0  0
 25 26  1  0  0  0  0
 25 66  1  0  0  0  0
 26 27  2  0  0  0  0
 26 67  1  0  0  0  0
 28 29  1  0  0  0  0
 28 68  1  0  0  0  0
 29 30  1  0  0  0  0
 29 69  1  0  0  0  0
 29 70  1  0  0  0  0
 30 31  1  0  0  0  0
 30 71  1  0  0  0  0
 30 72  1  0  0  0  0
 31 32  1  0  0  0  0
 32 33  1  0  0  0  0
 32 73  1  0  0  0  0
 32 74  1  0  0  0  0
 33 34  1  0  0  0  0
 33 75  1  0  0  0  0
 33 76  1  0  0  0  0
 34 35  1  0  0  0  0
 35 36  1  0  0  0  0
 35 77  1  0  0  0  0
 35 78  1  0  0  0  0
 36 37  1  0  0  0  0
 36 79  1  0  0  0  0
 36 80  1  0  0  0  0
 37 38  1  0  0  0  0
 37 81  1  0  0  0  0
 38 39  2  0  0  0  0
 38 43  1  0  0  0  0
 39 40  1  0  0  0  0
 39 82  1  0  0  0  0
 40 41  2  0  0  0  0
 40 83  1  0  0  0  0
 41 42  1  0  0  0  0
 41 84  1  0  0  0  0
 42 43  2  0  0  0  0
 42 55  1  0  0  0  0
 43 44  1  0  0  0  0
 44 45  2  0  0  0  0
 44 46  1  0  0  0  0
 46 47  1  0  0  0  0
 46 55  1  0  0  0  0
 47 48  1  0  0  0  0
 47 53  1  0  0  0  0
 47 85  1  0  0  0  0
 48 49  1  0  0  0  0
 48 86  1  0  0  0  0
 48 87  1  0  0  0  0
 49 50  1  0  0  0  0
 49 88  1  0  0  0  0
 49 89  1  0  0  0  0
 50 51  2  0  0  0  0
 50 52  1  0  0  0  0
 52 53  1  0  0  0  0
 52 90  1  0  0  0  0
 53 54  2  0  0  0  0
 55 56  2  0  0  0  0
M  END
$$$$
protac3895RUN2
  chem.cr 07102519423D
protac3895RUN2
 90 96  0  0  0  0  0  0  0  0999 V2000
   -0.1779   -0.5535    1.4354 O   0  0  0  0  0  0  0  0  0  0  0  0
    0.8106    0.1409    1.2444 C   0  0  0  0  0  0  0  0  0  0  0  0
    2.1423   -0.4353    0.8031 C   0  0  0  0  0  0  0  0  0  0  0  0
    3.2093    0.5530    0.5411 N   0  0  0  0  0  0  0  0  0  0  0  0
    4.4382    0.5726    1.2082 C   0  0  0  0  0  0  0  0  0  0  0  0
    5.3263    1.3468    0.5389 C   0  0  0  0  0  0  0  0  0  0  0  0
    6.6643    1.4920    0.7950 C   0  0  0  0  0  0  0  0  0  0  0  0
    7.3218    1.0663    1.9030 C   0  0  0  0  0  0  0  0  0  0  0  0
    6.7746    0.4502    3.0135 C   0  0  0  0  0  0  0  0  0  0  0  0
    7.0300   -0.9186    3.2387 C   0  0  0  0  0  0  0  0  0  0  0  0
    6.4905   -1.5670    4.3632 C   0  0  0  0  0  0  0  0  0  0  0  0
    5.7024   -0.8482    5.2758 C   0  0  0  0  0  0  0  0  0  0  0  0
    5.0395   -1.6563    6.6884 Cl  0  0  0  0  0  0  0  0  0  0  0  0
    5.4621    0.5217    5.0737 C   0  0  0  0  0  0  0  0  0  0  0  0
    5.9972    1.1713    3.9480 C   0  0  0  0  0  0  0  0  0  0  0  0
    5.6880    2.8957    3.7346 Cl  0  0  0  0  0  0  0  0  0  0  0  0
    8.6320    1.3057    1.8244 C   0  0  0  0  0  0  0  0  0  0  0  0
    9.5759    1.0650    2.5652 O   0  0  0  0  0  0  0  0  0  0  0  0
    8.8802    1.9537    0.6324 N   0  0  0  0  0  0  0  0  0  0  0  0
    7.6402    2.0106    0.0003 C   0  0  0  0  0  0  0  0  0  0  0  0
    7.6847    2.4022   -1.1554 O   0  0  0  0  0  0  0  0  0  0  0  0
    4.5934    1.9093   -0.5279 C   0  0  0  0  0  0  0  0  0  0  0  0
    4.8491    3.0095   -1.3762 C   0  0  0  0  0  0  0  0  0  0  0  0
    3.8770    3.3948   -2.3263 C   0  0  0  0  0  0  0  0  0  0  0  0
    2.6300    2.7416   -2.3950 C   0  0  0  0  0  0  0  0  0  0  0  0
    2.3203    1.7244   -1.4756 C   0  0  0  0  0  0  0  0  0  0  0  0
    3.3096    1.3584   -0.5536 C   0  0  0  0  0  0  0  0  0  0  0  0
    0.7010    1.5369    1.3792 N   0  0  0  0  0  0  0  0  0  0  0  0
   -0.5883    2.2482    1.3780 C   0  0  0  0  0  0  0  0  0  0  0  0
   -1.3156    2.1509    2.7287 C   0  0  0  0  0  0  0  0  0  0  0  0
   -2.4806    2.9830    2.6350 O   0  0  0  0  0  0  0  0  0  0  0  0
   -3.3485    2.9767    3.7821 C   0  0  0  0  0  0  0  0  0  0  0  0
   -4.2642    1.7245    3.7708 C   0  0  0  0  0  0  0  0  0  0  0  0
   -5.4157    2.0102    2.9522 O   0  0  0  0  0  0  0  0  0  0  0  0
   -5.2865    1.7738    1.5410 C   0  0  0  0  0  0  0  0  0  0  0  0
   -5.8216    0.3578    1.2686 C   0  0  0  0  0  0  0  0  0  0  0  0
   -5.7248    0.0242   -0.1598 N   0  0  0  0  0  0  0  0  0  0  0  0
   -6.0747   -1.2165   -0.6800 C   0  0  0  0  0  0  0  0  0  0  0  0
   -7.0167   -2.0730   -0.0576 C   0  0  0  0  0  0  0  0  0  0  0  0
   -7.3089   -3.3496   -0.5963 C   0  0  0  0  0  0  0  0  0  0  0  0
   -6.6498   -3.8057   -1.7560 C   0  0  0  0  0  0  0  0  0  0  0  0
   -5.7237   -2.9478   -2.3624 C   0  0  0  0  0  0  0  0  0  0  0  0
   -5.4608   -1.6802   -1.8513 C   0  0  0  0  0  0  0  0  0  0  0  0
   -4.5077   -1.0990   -2.6513 C   0  0  0  0  0  0  0  0  0  0  0  0
   -4.1127    0.0625   -2.6359 O   0  0  0  0  0  0  0  0  0  0  0  0
   -4.1512   -1.9966   -3.6701 N   0  0  0  0  0  0  0  0  0  0  0  0
   -2.8625   -1.8970   -4.3961 C   0  0  0  0  0  0  0  0  0  0  0  0
   -2.9681   -2.0915   -5.9298 C   0  0  0  0  0  0  0  0  0  0  0  0
   -2.8806   -3.5741   -6.3649 C   0  0  0  0  0  0  0  0  0  0  0  0
   -1.8092   -4.3587   -5.6345 C   0  0  0  0  0  0  0  0  0  0  0  0
   -1.3037   -5.3766   -6.0857 O   0  0  0  0  0  0  0  0  0  0  0  0
   -1.3336   -3.9187   -4.3935 N   0  0  0  0  0  0  0  0  0  0  0  0
   -1.7809   -2.7537   -3.7575 C   0  0  0  0  0  0  0  0  0  0  0  0
   -1.1429   -2.3988   -2.7756 O   0  0  0  0  0  0  0  0  0  0  0  0
   -4.9182   -3.1592   -3.4586 C   0  0  0  0  0  0  0  0  0  0  0  0
   -4.6100   -4.2502   -3.9199 O   0  0  0  0  0  0  0  0  0  0  0  0
    2.4840   -1.1422    1.5663 H   0  0  0  0  0  0  0  0  0  0  0  0
    1.9765   -1.0069   -0.1179 H   0  0  0  0  0  0  0  0  0  0  0  0
    4.5724   -0.0800    2.0640 H   0  0  0  0  0  0  0  0  0  0  0  0
    7.6451   -1.4747    2.5362 H   0  0  0  0  0  0  0  0  0  0  0  0
    6.6936   -2.6220    4.5322 H   0  0  0  0  0  0  0  0  0  0  0  0
    4.8679    1.0785    5.7917 H   0  0  0  0  0  0  0  0  0  0  0  0
    9.7542    1.9027    0.1331 H   0  0  0  0  0  0  0  0  0  0  0  0
    5.7437    3.6087   -1.2925 H   0  0  0  0  0  0  0  0  0  0  0  0
    4.0866    4.2265   -2.9937 H   0  0  0  0  0  0  0  0  0  0  0  0
    1.8881    3.0617   -3.1243 H   0  0  0  0  0  0  0  0  0  0  0  0
    1.3382    1.2605   -1.4677 H   0  0  0  0  0  0  0  0  0  0  0  0
    1.5522    2.0750    1.2528 H   0  0  0  0  0  0  0  0  0  0  0  0
   -1.2352    1.8274    0.5952 H   0  0  0  0  0  0  0  0  0  0  0  0
   -0.4155    3.3056    1.1401 H   0  0  0  0  0  0  0  0  0  0  0  0
   -0.6542    2.5061    3.5291 H   0  0  0  0  0  0  0  0  0  0  0  0
   -1.5794    1.1041    2.9287 H   0  0  0  0  0  0  0  0  0  0  0  0
   -3.9821    3.8723    3.7779 H   0  0  0  0  0  0  0  0  0  0  0  0
   -2.7612    2.9966    4.7103 H   0  0  0  0  0  0  0  0  0  0  0  0
   -4.5917    1.5316    4.8008 H   0  0  0  0  0  0  0  0  0  0  0  0
   -3.7238    0.8361    3.4183 H   0  0  0  0  0  0  0  0  0  0  0  0
   -5.8871    2.5037    0.9824 H   0  0  0  0  0  0  0  0  0  0  0  0
   -4.2448    1.8621    1.2063 H   0  0  0  0  0  0  0  0  0  0  0  0
   -5.2435   -0.3701    1.8520 H   0  0  0  0  0  0  0  0  0  0  0  0
   -6.8666    0.3112    1.6002 H   0  0  0  0  0  0  0  0  0  0  0  0
   -5.0728    0.5582   -0.7253 H   0  0  0  0  0  0  0  0  0  0  0  0
   -7.5321   -1.7557    0.8422 H   0  0  0  0  0  0  0  0  0  0  0  0
   -8.0372   -3.9913   -0.1062 H   0  0  0  0  0  0  0  0  0  0  0  0
   -6.8495   -4.7899   -2.1734 H   0  0  0  0  0  0  0  0  0  0  0  0
   -2.5221   -0.8621   -4.2564 H   0  0  0  0  0  0  0  0  0  0  0  0
   -2.1326   -1.5505   -6.3942 H   0  0  0  0  0  0  0  0  0  0  0  0
   -3.8890   -1.6298   -6.3102 H   0  0  0  0  0  0  0  0  0  0  0  0
   -3.8446   -4.0740   -6.2277 H   0  0  0  0  0  0  0  0  0  0  0  0
   -2.6809   -3.6289   -7.4421 H   0  0  0  0  0  0  0  0  0  0  0  0
   -0.6088   -4.4570   -3.9431 H   0  0  0  0  0  0  0  0  0  0  0  0
  1  2  2  0  0  0  0
  2  3  1  0  0  0  0
  2 28  1  0  0  0  0
  3  4  1  0  0  0  0
  3 57  1  0  0  0  0
  3 58  1  0  0  0  0
  4  5  1  0  0  0  0
  4 27  1  0  0  0  0
  5  6  2  0  0  0  0
  5 59  1  0  0  0  0
  6  7  1  0  0  0  0
  6 22  1  0  0  0  0
  7  8  2  0  0  0  0
  7 20  1  0  0  0  0
  8  9  1  0  0  0  0
  8 17  1  0  0  0  0
  9 10  2  0  0  0  0
  9 15  1  0  0  0  0
 10 11  1  0  0  0  0
 10 60  1  0  0  0  0
 11 12  2  0  0  0  0
 11 61  1  0  0  0  0
 12 13  1  0  0  0  0
 12 14  1  0  0  0  0
 14 15  2  0  0  0  0
 14 62  1  0  0  0  0
 15 16  1  0  0  0  0
 17 18  2  0  0  0  0
 17 19  1  0  0  0  0
 19 20  1  0  0  0  0
 19 63  1  0  0  0  0
 20 21  2  0  0  0  0
 22 23  2  0  0  0  0
 22 27  1  0  0  0  0
 23 24  1  0  0  0  0
 23 64  1  0  0  0  0
 24 25  2  0  0  0  0
 24 65  1  0  0  0  0
 25 26  1  0  0  0  0
 25 66  1  0  0  0  0
 26 27  2  0  0  0  0
 26 67  1  0  0  0  0
 28 29  1  0  0  0  0
 28 68  1  0  0  0  0
 29 30  1  0  0  0  0
 29 69  1  0  0  0  0
 29 70  1  0  0  0  0
 30 31  1  0  0  0  0
 30 71  1  0  0  0  0
 30 72  1  0  0  0  0
 31 32  1  0  0  0  0
 32 33  1  0  0  0  0
 32 73  1  0  0  0  0
 32 74  1  0  0  0  0
 33 34  1  0  0  0  0
 33 75  1  0  0  0  0
 33 76  1  0  0  0  0
 34 35  1  0  0  0  0
 35 36  1  0  0  0  0
 35 77  1  0  0  0  0
 35 78  1  0  0  0  0
 36 37  1  0  0  0  0
 36 79  1  0  0  0  0
 36 80  1  0  0  0  0
 37 38  1  0  0  0  0
 37 81  1  0  0  0  0
 38 39  2  0  0  0  0
 38 43  1  0  0  0  0
 39 40  1  0  0  0  0
 39 82  1  0  0  0  0
 40 41  2  0  0  0  0
 40 83  1  0  0  0  0
 41 42  1  0  0  0  0
 41 84  1  0  0  0  0
 42 43  2  0  0  0  0
 42 55  1  0  0  0  0
 43 44  1  0  0  0  0
 44 45  2  0  0  0  0
 44 46  1  0  0  0  0
 46 47  1  0  0  0  0
 46 55  1  0  0  0  0
 47 48  1  0  0  0  0
 47 53  1  0  0  0  0
 47 85  1  0  0  0  0
 48 49  1  0  0  0  0
 48 86  1  0  0  0  0
 48 87  1  0  0  0  0
 49 50  1  0  0  0  0
 49 88  1  0  0  0  0
 49 89  1  0  0  0  0
 50 51  2  0  0  0  0
 50 52  1  0  0  0  0
 52 53  1  0  0  0  0
 52 90  1  0  0  0  0
 53 54  2  0  0  0  0
 55 56  2  0  0  0  0
M  END
$$$$
protac3895RUN2
  chem.cr 07102519423D
protac3895RUN2
 90 96  0  0  0  0  0  0  0  0999 V2000
    3.5581    0.5322   -0.5680 O   0  0  0  0  0  0  0  0  0  0  0  0
    3.1457   -0.6181   -0.5168 C   0  0  0  0  0  0  0  0  0  0  0  0
    4.0274   -1.8196   -0.7986 C   0  0  0  0  0  0  0  0  0  0  0  0
    4.4435   -2.6536    0.3610 N   0  0  0  0  0  0  0  0  0  0  0  0
    5.0298   -3.9058    0.0815 C   0  0  0  0  0  0  0  0  0  0  0  0
    4.5307   -4.8708    0.8858 C   0  0  0  0  0  0  0  0  0  0  0  0
    4.7001   -6.2253    0.7781 C   0  0  0  0  0  0  0  0  0  0  0  0
    5.6419   -6.8635    0.0441 C   0  0  0  0  0  0  0  0  0  0  0  0
    6.6993   -6.2918   -0.6328 C   0  0  0  0  0  0  0  0  0  0  0  0
    7.8067   -5.8280    0.1018 C   0  0  0  0  0  0  0  0  0  0  0  0
    8.9523   -5.3574   -0.5625 C   0  0  0  0  0  0  0  0  0  0  0  0
    8.9933   -5.3444   -1.9653 C   0  0  0  0  0  0  0  0  0  0  0  0
   10.4387   -4.7839   -2.7938 Cl  0  0  0  0  0  0  0  0  0  0  0  0
    7.8877   -5.7925   -2.7043 C   0  0  0  0  0  0  0  0  0  0  0  0
    6.7410   -6.2671   -2.0433 C   0  0  0  0  0  0  0  0  0  0  0  0
    5.3713   -6.8351   -2.9979 Cl  0  0  0  0  0  0  0  0  0  0  0  0
    5.5259   -8.1911    0.1350 C   0  0  0  0  0  0  0  0  0  0  0  0
    6.1874   -9.1259   -0.2933 O   0  0  0  0  0  0  0  0  0  0  0  0
    4.4300   -8.4704    0.9252 N   0  0  0  0  0  0  0  0  0  0  0  0
    3.9568   -7.2234    1.3266 C   0  0  0  0  0  0  0  0  0  0  0  0
    2.9311   -7.2598    1.9940 O   0  0  0  0  0  0  0  0  0  0  0  0
    3.7313   -4.1939    1.8179 C   0  0  0  0  0  0  0  0  0  0  0  0
    3.2607   -4.5847    3.0919 C   0  0  0  0  0  0  0  0  0  0  0  0
    2.5991   -3.6450    3.9082 C   0  0  0  0  0  0  0  0  0  0  0  0
    2.4854   -2.2970    3.5123 C   0  0  0  0  0  0  0  0  0  0  0  0
    3.0709   -1.8735    2.3087 C   0  0  0  0  0  0  0  0  0  0  0  0
    3.6687   -2.8374    1.4807 C   0  0  0  0  0  0  0  0  0  0  0  0
    1.7548   -0.8281   -0.5134 N   0  0  0  0  0  0  0  0  0  0  0  0
    0.7755    0.2702   -0.6460 C   0  0  0  0  0  0  0  0  0  0  0  0
   -0.6632   -0.2655   -0.7828 C   0  0  0  0  0  0  0  0  0  0  0  0
   -1.5362    0.8250   -1.1126 O   0  0  0  0  0  0  0  0  0  0  0  0
   -2.9147    0.4363   -1.2266 C   0  0  0  0  0  0  0  0  0  0  0  0
   -3.7379    1.5877   -1.8427 C   0  0  0  0  0  0  0  0  0  0  0  0
   -4.8281    0.9578   -2.5431 O   0  0  0  0  0  0  0  0  0  0  0  0
   -5.6654    1.7876   -3.3638 C   0  0  0  0  0  0  0  0  0  0  0  0
   -6.7870    2.4073   -2.5055 C   0  0  0  0  0  0  0  0  0  0  0  0
   -6.3436    3.6729   -1.9190 N   0  0  0  0  0  0  0  0  0  0  0  0
   -6.9105    4.2345   -0.7843 C   0  0  0  0  0  0  0  0  0  0  0  0
   -8.2834    4.1279   -0.4621 C   0  0  0  0  0  0  0  0  0  0  0  0
   -8.7914    4.6939    0.7356 C   0  0  0  0  0  0  0  0  0  0  0  0
   -7.9319    5.3605    1.6368 C   0  0  0  0  0  0  0  0  0  0  0  0
   -6.5759    5.4570    1.2972 C   0  0  0  0  0  0  0  0  0  0  0  0
   -6.0894    4.9185    0.1116 C   0  0  0  0  0  0  0  0  0  0  0  0
   -4.7353    5.1292    0.0621 C   0  0  0  0  0  0  0  0  0  0  0  0
   -4.0416    5.1581   -0.9485 O   0  0  0  0  0  0  0  0  0  0  0  0
   -4.3412    5.7781    1.2413 N   0  0  0  0  0  0  0  0  0  0  0  0
   -3.0110    5.6061    1.8694 C   0  0  0  0  0  0  0  0  0  0  0  0
   -2.1567    6.8824    1.7192 C   0  0  0  0  0  0  0  0  0  0  0  0
   -1.6421    7.0173    0.2688 C   0  0  0  0  0  0  0  0  0  0  0  0
   -0.9554    5.7554   -0.2127 C   0  0  0  0  0  0  0  0  0  0  0  0
   -0.0857    5.7548   -1.0698 O   0  0  0  0  0  0  0  0  0  0  0  0
   -1.3079    4.5175    0.3422 N   0  0  0  0  0  0  0  0  0  0  0  0
   -2.2703    4.3767    1.3528 C   0  0  0  0  0  0  0  0  0  0  0  0
   -2.4884    3.2411    1.7506 O   0  0  0  0  0  0  0  0  0  0  0  0
   -5.5129    6.0037    1.9808 C   0  0  0  0  0  0  0  0  0  0  0  0
   -5.4889    6.4203    3.1334 O   0  0  0  0  0  0  0  0  0  0  0  0
    3.5159   -2.4632   -1.5230 H   0  0  0  0  0  0  0  0  0  0  0  0
    4.9368   -1.4454   -1.2827 H   0  0  0  0  0  0  0  0  0  0  0  0
    5.6650   -3.9986   -0.7960 H   0  0  0  0  0  0  0  0  0  0  0  0
    7.7835   -5.8663    1.1884 H   0  0  0  0  0  0  0  0  0  0  0  0
    9.8131   -5.0260    0.0110 H   0  0  0  0  0  0  0  0  0  0  0  0
    7.9292   -5.7884   -3.7881 H   0  0  0  0  0  0  0  0  0  0  0  0
    4.2631   -9.3416    1.4050 H   0  0  0  0  0  0  0  0  0  0  0  0
    3.4451   -5.5709    3.4970 H   0  0  0  0  0  0  0  0  0  0  0  0
    2.2127   -3.9541    4.8740 H   0  0  0  0  0  0  0  0  0  0  0  0
    2.0096   -1.5733    4.1676 H   0  0  0  0  0  0  0  0  0  0  0  0
    3.0912   -0.8177    2.0568 H   0  0  0  0  0  0  0  0  0  0  0  0
    1.4164   -1.7700   -0.3536 H   0  0  0  0  0  0  0  0  0  0  0  0
    1.0276    0.8719   -1.5309 H   0  0  0  0  0  0  0  0  0  0  0  0
    0.8409    0.9271    0.2332 H   0  0  0  0  0  0  0  0  0  0  0  0
   -0.9689   -0.7354    0.1617 H   0  0  0  0  0  0  0  0  0  0  0  0
   -0.6932   -1.0207   -1.5803 H   0  0  0  0  0  0  0  0  0  0  0  0
   -3.3290    0.1712   -0.2463 H   0  0  0  0  0  0  0  0  0  0  0  0
   -3.0004   -0.4398   -1.8831 H   0  0  0  0  0  0  0  0  0  0  0  0
   -3.1106    2.1614   -2.5388 H   0  0  0  0  0  0  0  0  0  0  0  0
   -4.0947    2.2623   -1.0542 H   0  0  0  0  0  0  0  0  0  0  0  0
   -5.0860    2.5629   -3.8828 H   0  0  0  0  0  0  0  0  0  0  0  0
   -6.1362    1.1574   -4.1283 H   0  0  0  0  0  0  0  0  0  0  0  0
   -7.6679    2.5894   -3.1358 H   0  0  0  0  0  0  0  0  0  0  0  0
   -7.0709    1.7007   -1.7125 H   0  0  0  0  0  0  0  0  0  0  0  0
   -5.3745    3.9309   -2.0803 H   0  0  0  0  0  0  0  0  0  0  0  0
   -8.9606    3.6190   -1.1407 H   0  0  0  0  0  0  0  0  0  0  0  0
   -9.8506    4.6102    0.9667 H   0  0  0  0  0  0  0  0  0  0  0  0
   -8.3052    5.7820    2.5671 H   0  0  0  0  0  0  0  0  0  0  0  0
   -3.1718    5.4349    2.9421 H   0  0  0  0  0  0  0  0  0  0  0  0
   -1.3005    6.8184    2.4068 H   0  0  0  0  0  0  0  0  0  0  0  0
   -2.7405    7.7681    2.0091 H   0  0  0  0  0  0  0  0  0  0  0  0
   -2.4783    7.2418   -0.4036 H   0  0  0  0  0  0  0  0  0  0  0  0
   -0.9500    7.8640    0.1898 H   0  0  0  0  0  0  0  0  0  0  0  0
   -0.9072    3.6804   -0.0570 H   0  0  0  0  0  0  0  0  0  0  0  0
  1  2  2  0  0  0  0
  2  3  1  0  0  0  0
  2 28  1  0  0  0  0
  3  4  1  0  0  0  0
  3 57  1  0  0  0  0
  3 58  1  0  0  0  0
  4  5  1  0  0  0  0
  4 27  1  0  0  0  0
  5  6  2  0  0  0  0
  5 59  1  0  0  0  0
  6  7  1  0  0  0  0
  6 22  1  0  0  0  0
  7  8  2  0  0  0  0
  7 20  1  0  0  0  0
  8  9  1  0  0  0  0
  8 17  1  0  0  0  0
  9 10  2  0  0  0  0
  9 15  1  0  0  0  0
 10 11  1  0  0  0  0
 10 60  1  0  0  0  0
 11 12  2  0  0  0  0
 11 61  1  0  0  0  0
 12 13  1  0  0  0  0
 12 14  1  0  0  0  0
 14 15  2  0  0  0  0
 14 62  1  0  0  0  0
 15 16  1  0  0  0  0
 17 18  2  0  0  0  0
 17 19  1  0  0  0  0
 19 20  1  0  0  0  0
 19 63  1  0  0  0  0
 20 21  2  0  0  0  0
 22 23  2  0  0  0  0
 22 27  1  0  0  0  0
 23 24  1  0  0  0  0
 23 64  1  0  0  0  0
 24 25  2  0  0  0  0
 24 65  1  0  0  0  0
 25 26  1  0  0  0  0
 25 66  1  0  0  0  0
 26 27  2  0  0  0  0
 26 67  1  0  0  0  0
 28 29  1  0  0  0  0
 28 68  1  0  0  0  0
 29 30  1  0  0  0  0
 29 69  1  0  0  0  0
 29 70  1  0  0  0  0
 30 31  1  0  0  0  0
 30 71  1  0  0  0  0
 30 72  1  0  0  0  0
 31 32  1  0  0  0  0
 32 33  1  0  0  0  0
 32 73  1  0  0  0  0
 32 74  1  0  0  0  0
 33 34  1  0  0  0  0
 33 75  1  0  0  0  0
 33 76  1  0  0  0  0
 34 35  1  0  0  0  0
 35 36  1  0  0  0  0
 35 77  1  0  0  0  0
 35 78  1  0  0  0  0
 36 37  1  0  0  0  0
 36 79  1  0  0  0  0
 36 80  1  0  0  0  0
 37 38  1  0  0  0  0
 37 81  1  0  0  0  0
 38 39  2  0  0  0  0
 38 43  1  0  0  0  0
 39 40  1  0  0  0  0
 39 82  1  0  0  0  0
 40 41  2  0  0  0  0
 40 83  1  0  0  0  0
 41 42  1  0  0  0  0
 41 84  1  0  0  0  0
 42 43  2  0  0  0  0
 42 55  1  0  0  0  0
 43 44  1  0  0  0  0
 44 45  2  0  0  0  0
 44 46  1  0  0  0  0
 46 47  1  0  0  0  0
 46 55  1  0  0  0  0
 47 48  1  0  0  0  0
 47 53  1  0  0  0  0
 47 85  1  0  0  0  0
 48 49  1  0  0  0  0
 48 86  1  0  0  0  0
 48 87  1  0  0  0  0
 49 50  1  0  0  0  0
 49 88  1  0  0  0  0
 49 89  1  0  0  0  0
 50 51  2  0  0  0  0
 50 52  1  0  0  0  0
 52 53  1  0  0  0  0
 52 90  1  0  0  0  0
 53 54  2  0  0  0  0
 55 56  2  0  0  0  0
M  END
$$$$
protac3895RUN2
  chem.cr 07102519423D
protac3895RUN2
 90 96  0  0  0  0  0  0  0  0999 V2000
    0.4628    1.2358   -6.4936 O   0  0  0  0  0  0  0  0  0  0  0  0
    1.3148    1.0647   -5.6322 C   0  0  0  0  0  0  0  0  0  0  0  0
    2.0196   -0.2556   -5.4148 C   0  0  0  0  0  0  0  0  0  0  0  0
    1.7717   -0.8631   -4.0882 N   0  0  0  0  0  0  0  0  0  0  0  0
    2.7741   -0.8978   -3.1106 C   0  0  0  0  0  0  0  0  0  0  0  0
    2.2470   -0.7780   -1.8708 C   0  0  0  0  0  0  0  0  0  0  0  0
    2.9247   -0.6052   -0.6927 C   0  0  0  0  0  0  0  0  0  0  0  0
    4.2551   -0.7661   -0.4914 C   0  0  0  0  0  0  0  0  0  0  0  0
    5.1894   -1.2047   -1.4110 C   0  0  0  0  0  0  0  0  0  0  0  0
    6.1493   -0.3025   -1.9083 C   0  0  0  0  0  0  0  0  0  0  0  0
    7.1239   -0.7330   -2.8237 C   0  0  0  0  0  0  0  0  0  0  0  0
    7.1467   -2.0721   -3.2426 C   0  0  0  0  0  0  0  0  0  0  0  0
    8.3757   -2.6154   -4.3752 Cl  0  0  0  0  0  0  0  0  0  0  0  0
    6.2015   -2.9840   -2.7452 C   0  0  0  0  0  0  0  0  0  0  0  0
    5.2262   -2.5548   -1.8292 C   0  0  0  0  0  0  0  0  0  0  0  0
    4.0717   -3.7327   -1.2036 Cl  0  0  0  0  0  0  0  0  0  0  0  0
    4.6077   -0.4565    0.7564 C   0  0  0  0  0  0  0  0  0  0  0  0
    5.6793   -0.4316    1.3460 O   0  0  0  0  0  0  0  0  0  0  0  0
    3.4709   -0.0939    1.4507 N   0  0  0  0  0  0  0  0  0  0  0  0
    2.4541   -0.1615    0.4993 C   0  0  0  0  0  0  0  0  0  0  0  0
    1.3863    0.2947    0.8714 O   0  0  0  0  0  0  0  0  0  0  0  0
    0.8519   -0.7897   -2.0611 C   0  0  0  0  0  0  0  0  0  0  0  0
   -0.2277   -0.9809   -1.1694 C   0  0  0  0  0  0  0  0  0  0  0  0
   -1.5475   -0.9980   -1.6703 C   0  0  0  0  0  0  0  0  0  0  0  0
   -1.7986   -0.8979   -3.0549 C   0  0  0  0  0  0  0  0  0  0  0  0
   -0.7228   -0.8296   -3.9566 C   0  0  0  0  0  0  0  0  0  0  0  0
    0.5740   -0.7966   -3.4298 C   0  0  0  0  0  0  0  0  0  0  0  0
    1.4671    2.0331   -4.6302 N   0  0  0  0  0  0  0  0  0  0  0  0
    0.3064    2.7242   -4.0561 C   0  0  0  0  0  0  0  0  0  0  0  0
    0.4406    2.8351   -2.5301 C   0  0  0  0  0  0  0  0  0  0  0  0
    1.5327    3.7274   -2.2480 O   0  0  0  0  0  0  0  0  0  0  0  0
    1.9671    3.8089   -0.8749 C   0  0  0  0  0  0  0  0  0  0  0  0
    0.7936    4.2448    0.0332 C   0  0  0  0  0  0  0  0  0  0  0  0
    0.1436    3.0538    0.4989 O   0  0  0  0  0  0  0  0  0  0  0  0
   -1.2384    3.1974    0.8392 C   0  0  0  0  0  0  0  0  0  0  0  0
   -1.7206    1.8729    1.4618 C   0  0  0  0  0  0  0  0  0  0  0  0
   -1.0363    1.6400    2.7441 N   0  0  0  0  0  0  0  0  0  0  0  0
   -0.8556    0.3885    3.3305 C   0  0  0  0  0  0  0  0  0  0  0  0
    0.4477    0.0460    3.7584 C   0  0  0  0  0  0  0  0  0  0  0  0
    0.7169   -1.1690    4.4307 C   0  0  0  0  0  0  0  0  0  0  0  0
   -0.3272   -2.0607    4.7341 C   0  0  0  0  0  0  0  0  0  0  0  0
   -1.6201   -1.7122    4.3308 C   0  0  0  0  0  0  0  0  0  0  0  0
   -1.8900   -0.5296    3.6243 C   0  0  0  0  0  0  0  0  0  0  0  0
   -3.2582   -0.4704    3.4242 C   0  0  0  0  0  0  0  0  0  0  0  0
   -3.8556    0.0646    2.4995 O   0  0  0  0  0  0  0  0  0  0  0  0
   -3.8306   -1.6059    4.0125 N   0  0  0  0  0  0  0  0  0  0  0  0
   -5.2727   -1.8214    4.2352 C   0  0  0  0  0  0  0  0  0  0  0  0
   -5.8749   -2.5255    2.9978 C   0  0  0  0  0  0  0  0  0  0  0  0
   -7.4147   -2.4788    3.0478 C   0  0  0  0  0  0  0  0  0  0  0  0
   -7.8975   -1.0517    3.1473 C   0  0  0  0  0  0  0  0  0  0  0  0
   -8.9448   -0.6526    2.6613 O   0  0  0  0  0  0  0  0  0  0  0  0
   -7.2109   -0.1844    4.0027 N   0  0  0  0  0  0  0  0  0  0  0  0
   -5.9950   -0.5267    4.6169 C   0  0  0  0  0  0  0  0  0  0  0  0
   -5.6617    0.1680    5.5674 O   0  0  0  0  0  0  0  0  0  0  0  0
   -2.8045   -2.3649    4.5623 C   0  0  0  0  0  0  0  0  0  0  0  0
   -2.9981   -3.4348    5.1297 O   0  0  0  0  0  0  0  0  0  0  0  0
    1.6705   -0.9593   -6.1789 H   0  0  0  0  0  0  0  0  0  0  0  0
    3.0948   -0.1118   -5.5646 H   0  0  0  0  0  0  0  0  0  0  0  0
    3.8089   -0.8926   -3.4348 H   0  0  0  0  0  0  0  0  0  0  0  0
    6.1439    0.7312   -1.5739 H   0  0  0  0  0  0  0  0  0  0  0  0
    7.8660   -0.0328   -3.1964 H   0  0  0  0  0  0  0  0  0  0  0  0
    6.2315   -4.0248   -3.0591 H   0  0  0  0  0  0  0  0  0  0  0  0
    3.4723    0.5716    2.2049 H   0  0  0  0  0  0  0  0  0  0  0  0
   -0.0820   -1.1690   -0.1148 H   0  0  0  0  0  0  0  0  0  0  0  0
   -2.3778   -1.1220   -0.9805 H   0  0  0  0  0  0  0  0  0  0  0  0
   -2.8203   -0.9296   -3.4267 H   0  0  0  0  0  0  0  0  0  0  0  0
   -0.8890   -0.8234   -5.0300 H   0  0  0  0  0  0  0  0  0  0  0  0
    2.2805    1.9648   -4.0316 H   0  0  0  0  0  0  0  0  0  0  0  0
   -0.6056    2.1594   -4.2943 H   0  0  0  0  0  0  0  0  0  0  0  0
    0.2186    3.7232   -4.5021 H   0  0  0  0  0  0  0  0  0  0  0  0
    0.6173    1.8432   -2.0955 H   0  0  0  0  0  0  0  0  0  0  0  0
   -0.4984    3.2238   -2.1162 H   0  0  0  0  0  0  0  0  0  0  0  0
    2.7724    4.5497   -0.7936 H   0  0  0  0  0  0  0  0  0  0  0  0
    2.3650    2.8442   -0.5334 H   0  0  0  0  0  0  0  0  0  0  0  0
    0.1097    4.8877   -0.5364 H   0  0  0  0  0  0  0  0  0  0  0  0
    1.1783    4.8202    0.8837 H   0  0  0  0  0  0  0  0  0  0  0  0
   -1.3885    4.0185    1.5516 H   0  0  0  0  0  0  0  0  0  0  0  0
   -1.8292    3.4096   -0.0620 H   0  0  0  0  0  0  0  0  0  0  0  0
   -2.8017    1.9587    1.6125 H   0  0  0  0  0  0  0  0  0  0  0  0
   -1.5307    1.0420    0.7698 H   0  0  0  0  0  0  0  0  0  0  0  0
   -0.2921    2.2960    2.9345 H   0  0  0  0  0  0  0  0  0  0  0  0
    1.2691    0.7270    3.5579 H   0  0  0  0  0  0  0  0  0  0  0  0
    1.7333   -1.4028    4.7351 H   0  0  0  0  0  0  0  0  0  0  0  0
   -0.1450   -2.9833    5.2812 H   0  0  0  0  0  0  0  0  0  0  0  0
   -5.3825   -2.4889    5.1001 H   0  0  0  0  0  0  0  0  0  0  0  0
   -5.5067   -3.5582    2.9418 H   0  0  0  0  0  0  0  0  0  0  0  0
   -5.5305   -2.0134    2.0878 H   0  0  0  0  0  0  0  0  0  0  0  0
   -7.8343   -2.9463    2.1497 H   0  0  0  0  0  0  0  0  0  0  0  0
   -7.7889   -3.0440    3.9097 H   0  0  0  0  0  0  0  0  0  0  0  0
   -7.6178    0.7162    4.2048 H   0  0  0  0  0  0  0  0  0  0  0  0
  1  2  2  0  0  0  0
  2  3  1  0  0  0  0
  2 28  1  0  0  0  0
  3  4  1  0  0  0  0
  3 57  1  0  0  0  0
  3 58  1  0  0  0  0
  4  5  1  0  0  0  0
  4 27  1  0  0  0  0
  5  6  2  0  0  0  0
  5 59  1  0  0  0  0
  6  7  1  0  0  0  0
  6 22  1  0  0  0  0
  7  8  2  0  0  0  0
  7 20  1  0  0  0  0
  8  9  1  0  0  0  0
  8 17  1  0  0  0  0
  9 10  2  0  0  0  0
  9 15  1  0  0  0  0
 10 11  1  0  0  0  0
 10 60  1  0  0  0  0
 11 12  2  0  0  0  0
 11 61  1  0  0  0  0
 12 13  1  0  0  0  0
 12 14  1  0  0  0  0
 14 15  2  0  0  0  0
 14 62  1  0  0  0  0
 15 16  1  0  0  0  0
 17 18  2  0  0  0  0
 17 19  1  0  0  0  0
 19 20  1  0  0  0  0
 19 63  1  0  0  0  0
 20 21  2  0  0  0  0
 22 23  2  0  0  0  0
 22 27  1  0  0  0  0
 23 24  1  0  0  0  0
 23 64  1  0  0  0  0
 24 25  2  0  0  0  0
 24 65  1  0  0  0  0
 25 26  1  0  0  0  0
 25 66  1  0  0  0  0
 26 27  2  0  0  0  0
 26 67  1  0  0  0  0
 28 29  1  0  0  0  0
 28 68  1  0  0  0  0
 29 30  1  0  0  0  0
 29 69  1  0  0  0  0
 29 70  1  0  0  0  0
 30 31  1  0  0  0  0
 30 71  1  0  0  0  0
 30 72  1  0  0  0  0
 31 32  1  0  0  0  0
 32 33  1  0  0  0  0
 32 73  1  0  0  0  0
 32 74  1  0  0  0  0
 33 34  1  0  0  0  0
 33 75  1  0  0  0  0
 33 76  1  0  0  0  0
 34 35  1  0  0  0  0
 35 36  1  0  0  0  0
 35 77  1  0  0  0  0
 35 78  1  0  0  0  0
 36 37  1  0  0  0  0
 36 79  1  0  0  0  0
 36 80  1  0  0  0  0
 37 38  1  0  0  0  0
 37 81  1  0  0  0  0
 38 39  2  0  0  0  0
 38 43  1  0  0  0  0
 39 40  1  0  0  0  0
 39 82  1  0  0  0  0
 40 41  2  0  0  0  0
 40 83  1  0  0  0  0
 41 42  1  0  0  0  0
 41 84  1  0  0  0  0
 42 43  2  0  0  0  0
 42 55  1  0  0  0  0
 43 44  1  0  0  0  0
 44 45  2  0  0  0  0
 44 46  1  0  0  0  0
 46 47  1  0  0  0  0
 46 55  1  0  0  0  0
 47 48  1  0  0  0  0
 47 53  1  0  0  0  0
 47 85  1  0  0  0  0
 48 49  1  0  0  0  0
 48 86  1  0  0  0  0
 48 87  1  0  0  0  0
 49 50  1  0  0  0  0
 49 88  1  0  0  0  0
 49 89  1  0  0  0  0
 50 51  2  0  0  0  0
 50 52  1  0  0  0  0
 52 53  1  0  0  0  0
 52 90  1  0  0  0  0
 53 54  2  0  0  0  0
 55 56  2  0  0  0  0
M  END
$$$$
protac3895RUN2
  chem.cr 07102519423D
protac3895RUN2
 90 96  0  0  0  0  0  0  0  0999 V2000
    3.6518   -3.4130    0.6089 O   0  0  0  0  0  0  0  0  0  0  0  0
    3.2010   -2.8083   -0.3543 C   0  0  0  0  0  0  0  0  0  0  0  0
    3.1650   -3.3914   -1.7443 C   0  0  0  0  0  0  0  0  0  0  0  0
    1.8264   -3.8450   -2.1804 N   0  0  0  0  0  0  0  0  0  0  0  0
    1.0414   -4.6229   -1.3069 C   0  0  0  0  0  0  0  0  0  0  0  0
    0.4438   -5.6382   -1.9654 C   0  0  0  0  0  0  0  0  0  0  0  0
   -0.2199   -6.6997   -1.4179 C   0  0  0  0  0  0  0  0  0  0  0  0
   -0.7123   -6.7733   -0.1565 C   0  0  0  0  0  0  0  0  0  0  0  0
   -0.7913   -5.7491    0.7681 C   0  0  0  0  0  0  0  0  0  0  0  0
   -1.7980   -4.7775    0.6084 C   0  0  0  0  0  0  0  0  0  0  0  0
   -2.0115   -3.8025    1.5977 C   0  0  0  0  0  0  0  0  0  0  0  0
   -1.2004   -3.7802    2.7441 C   0  0  0  0  0  0  0  0  0  0  0  0
   -1.4750   -2.5707    3.9916 Cl  0  0  0  0  0  0  0  0  0  0  0  0
   -0.1776   -4.7299    2.9001 C   0  0  0  0  0  0  0  0  0  0  0  0
    0.0217   -5.7202    1.9218 C   0  0  0  0  0  0  0  0  0  0  0  0
    1.2709   -6.9367    2.1736 Cl  0  0  0  0  0  0  0  0  0  0  0  0
   -1.2836   -7.9545    0.0855 C   0  0  0  0  0  0  0  0  0  0  0  0
   -1.8998   -8.4126    1.0380 O   0  0  0  0  0  0  0  0  0  0  0  0
   -1.1361   -8.7317   -1.0456 N   0  0  0  0  0  0  0  0  0  0  0  0
   -0.4986   -7.9090   -1.9709 C   0  0  0  0  0  0  0  0  0  0  0  0
   -0.2310   -8.4470   -3.0370 O   0  0  0  0  0  0  0  0  0  0  0  0
    0.7449   -5.4272   -3.3202 C   0  0  0  0  0  0  0  0  0  0  0  0
    0.1723   -5.9513   -4.4977 C   0  0  0  0  0  0  0  0  0  0  0  0
    0.6036   -5.4706   -5.7529 C   0  0  0  0  0  0  0  0  0  0  0  0
    1.5475   -4.4249   -5.8415 C   0  0  0  0  0  0  0  0  0  0  0  0
    2.0405   -3.8235   -4.6692 C   0  0  0  0  0  0  0  0  0  0  0  0
    1.6137   -4.3404   -3.4383 C   0  0  0  0  0  0  0  0  0  0  0  0
    2.3334   -1.7333   -0.1259 N   0  0  0  0  0  0  0  0  0  0  0  0
    1.5049   -1.6355    1.0795 C   0  0  0  0  0  0  0  0  0  0  0  0
    0.0374   -1.3960    0.7051 C   0  0  0  0  0  0  0  0  0  0  0  0
   -0.0211   -0.1378    0.0227 O   0  0  0  0  0  0  0  0  0  0  0  0
   -1.3056    0.5127   -0.0416 C   0  0  0  0  0  0  0  0  0  0  0  0
   -1.8072    0.8845    1.3810 C   0  0  0  0  0  0  0  0  0  0  0  0
   -0.6688    1.3209    2.1288 O   0  0  0  0  0  0  0  0  0  0  0  0
   -0.9071    2.1591    3.2630 C   0  0  0  0  0  0  0  0  0  0  0  0
    0.4860    2.5977    3.7656 C   0  0  0  0  0  0  0  0  0  0  0  0
    1.2866    3.0204    2.6058 N   0  0  0  0  0  0  0  0  0  0  0  0
    1.7488    4.3186    2.5033 C   0  0  0  0  0  0  0  0  0  0  0  0
    2.7583    4.8130    3.3556 C   0  0  0  0  0  0  0  0  0  0  0  0
    3.2105    6.1509    3.2459 C   0  0  0  0  0  0  0  0  0  0  0  0
    2.6296    7.0261    2.3028 C   0  0  0  0  0  0  0  0  0  0  0  0
    1.6173    6.5219    1.4742 C   0  0  0  0  0  0  0  0  0  0  0  0
    1.2096    5.1930    1.5535 C   0  0  0  0  0  0  0  0  0  0  0  0
    0.2076    5.0034    0.6319 C   0  0  0  0  0  0  0  0  0  0  0  0
   -0.3126    3.9542    0.2723 O   0  0  0  0  0  0  0  0  0  0  0  0
   -0.0438    6.2109   -0.0295 N   0  0  0  0  0  0  0  0  0  0  0  0
   -1.3612    6.4962   -0.6416 C   0  0  0  0  0  0  0  0  0  0  0  0
   -1.2934    7.4844   -1.8255 C   0  0  0  0  0  0  0  0  0  0  0  0
   -2.6980    7.6174   -2.4568 C   0  0  0  0  0  0  0  0  0  0  0  0
   -3.7721    7.9174   -1.4318 C   0  0  0  0  0  0  0  0  0  0  0  0
   -4.8681    8.3649   -1.7299 O   0  0  0  0  0  0  0  0  0  0  0  0
   -3.6100    7.4695   -0.1141 N   0  0  0  0  0  0  0  0  0  0  0  0
   -2.4028    6.9486    0.3738 C   0  0  0  0  0  0  0  0  0  0  0  0
   -2.3885    6.6530    1.5617 O   0  0  0  0  0  0  0  0  0  0  0  0
    0.8491    7.1498    0.5190 C   0  0  0  0  0  0  0  0  0  0  0  0
    0.8600    8.3360    0.2086 O   0  0  0  0  0  0  0  0  0  0  0  0
    3.5436   -2.6490   -2.4547 H   0  0  0  0  0  0  0  0  0  0  0  0
    3.8402   -4.2551   -1.7733 H   0  0  0  0  0  0  0  0  0  0  0  0
    1.1244   -4.4483   -0.2371 H   0  0  0  0  0  0  0  0  0  0  0  0
   -2.4425   -4.8059   -0.2672 H   0  0  0  0  0  0  0  0  0  0  0  0
   -2.8109   -3.0757    1.4784 H   0  0  0  0  0  0  0  0  0  0  0  0
    0.4430   -4.7177    3.7916 H   0  0  0  0  0  0  0  0  0  0  0  0
   -1.6842   -9.5474   -1.2676 H   0  0  0  0  0  0  0  0  0  0  0  0
   -0.6316   -6.6735   -4.4733 H   0  0  0  0  0  0  0  0  0  0  0  0
    0.1747   -5.8897   -6.6600 H   0  0  0  0  0  0  0  0  0  0  0  0
    1.8536   -4.0526   -6.8154 H   0  0  0  0  0  0  0  0  0  0  0  0
    2.7033   -2.9670   -4.7214 H   0  0  0  0  0  0  0  0  0  0  0  0
    2.0258   -1.1886   -0.9238 H   0  0  0  0  0  0  0  0  0  0  0  0
    1.8635   -0.8001    1.6974 H   0  0  0  0  0  0  0  0  0  0  0  0
    1.5810   -2.5582    1.6703 H   0  0  0  0  0  0  0  0  0  0  0  0
   -0.5498   -1.3774    1.6270 H   0  0  0  0  0  0  0  0  0  0  0  0
   -0.3331   -2.2073    0.0641 H   0  0  0  0  0  0  0  0  0  0  0  0
   -2.0404   -0.1250   -0.5492 H   0  0  0  0  0  0  0  0  0  0  0  0
   -1.2072    1.4408   -0.6217 H   0  0  0  0  0  0  0  0  0  0  0  0
   -2.2798    0.0205    1.8641 H   0  0  0  0  0  0  0  0  0  0  0  0
   -2.5533    1.6848    1.2901 H   0  0  0  0  0  0  0  0  0  0  0  0
   -1.4809    3.0475    2.9646 H   0  0  0  0  0  0  0  0  0  0  0  0
   -1.4563    1.6278    4.0512 H   0  0  0  0  0  0  0  0  0  0  0  0
    0.3755    3.4181    4.4880 H   0  0  0  0  0  0  0  0  0  0  0  0
    0.9752    1.7539    4.2683 H   0  0  0  0  0  0  0  0  0  0  0  0
    0.9096    2.6637    1.7310 H   0  0  0  0  0  0  0  0  0  0  0  0
    3.2025    4.1502    4.0931 H   0  0  0  0  0  0  0  0  0  0  0  0
    3.9984    6.5087    3.9030 H   0  0  0  0  0  0  0  0  0  0  0  0
    2.9465    8.0618    2.2215 H   0  0  0  0  0  0  0  0  0  0  0  0
   -1.7300    5.5430   -1.0434 H   0  0  0  0  0  0  0  0  0  0  0  0
   -0.5593    7.1430   -2.5668 H   0  0  0  0  0  0  0  0  0  0  0  0
   -0.9683    8.4723   -1.4732 H   0  0  0  0  0  0  0  0  0  0  0  0
   -2.6937    8.4117   -3.2133 H   0  0  0  0  0  0  0  0  0  0  0  0
   -2.9665    6.6920   -2.9805 H   0  0  0  0  0  0  0  0  0  0  0  0
   -4.3630    7.6223    0.5401 H   0  0  0  0  0  0  0  0  0  0  0  0
  1  2  2  0  0  0  0
  2  3  1  0  0  0  0
  2 28  1  0  0  0  0
  3  4  1  0  0  0  0
  3 57  1  0  0  0  0
  3 58  1  0  0  0  0
  4  5  1  0  0  0  0
  4 27  1  0  0  0  0
  5  6  2  0  0  0  0
  5 59  1  0  0  0  0
  6  7  1  0  0  0  0
  6 22  1  0  0  0  0
  7  8  2  0  0  0  0
  7 20  1  0  0  0  0
  8  9  1  0  0  0  0
  8 17  1  0  0  0  0
  9 10  2  0  0  0  0
  9 15  1  0  0  0  0
 10 11  1  0  0  0  0
 10 60  1  0  0  0  0
 11 12  2  0  0  0  0
 11 61  1  0  0  0  0
 12 13  1  0  0  0  0
 12 14  1  0  0  0  0
 14 15  2  0  0  0  0
 14 62  1  0  0  0  0
 15 16  1  0  0  0  0
 17 18  2  0  0  0  0
 17 19  1  0  0  0  0
 19 20  1  0  0  0  0
 19 63  1  0  0  0  0
 20 21  2  0  0  0  0
 22 23  2  0  0  0  0
 22 27  1  0  0  0  0
 23 24  1  0  0  0  0
 23 64  1  0  0  0  0
 24 25  2  0  0  0  0
 24 65  1  0  0  0  0
 25 26  1  0  0  0  0
 25 66  1  0  0  0  0
 26 27  2  0  0  0  0
 26 67  1  0  0  0  0
 28 29  1  0  0  0  0
 28 68  1  0  0  0  0
 29 30  1  0  0  0  0
 29 69  1  0  0  0  0
 29 70  1  0  0  0  0
 30 31  1  0  0  0  0
 30 71  1  0  0  0  0
 30 72  1  0  0  0  0
 31 32  1  0  0  0  0
 32 33  1  0  0  0  0
 32 73  1  0  0  0  0
 32 74  1  0  0  0  0
 33 34  1  0  0  0  0
 33 75  1  0  0  0  0
 33 76  1  0  0  0  0
 34 35  1  0  0  0  0
 35 36  1  0  0  0  0
 35 77  1  0  0  0  0
 35 78  1  0  0  0  0
 36 37  1  0  0  0  0
 36 79  1  0  0  0  0
 36 80  1  0  0  0  0
 37 38  1  0  0  0  0
 37 81  1  0  0  0  0
 38 39  2  0  0  0  0
 38 43  1  0  0  0  0
 39 40  1  0  0  0  0
 39 82  1  0  0  0  0
 40 41  2  0  0  0  0
 40 83  1  0  0  0  0
 41 42  1  0  0  0  0
 41 84  1  0  0  0  0
 42 43  2  0  0  0  0
 42 55  1  0  0  0  0
 43 44  1  0  0  0  0
 44 45  2  0  0  0  0
 44 46  1  0  0  0  0
 46 47  1  0  0  0  0
 46 55  1  0  0  0  0
 47 48  1  0  0  0  0
 47 53  1  0  0  0  0
 47 85  1  0  0  0  0
 48 49  1  0  0  0  0
 48 86  1  0  0  0  0
 48 87  1  0  0  0  0
 49 50  1  0  0  0  0
 49 88  1  0  0  0  0
 49 89  1  0  0  0  0
 50 51  2  0  0  0  0
 50 52  1  0  0  0  0
 52 53  1  0  0  0  0
 52 90  1  0  0  0  0
 53 54  2  0  0  0  0
 55 56  2  0  0  0  0
M  END
$$$$
protac3895RUN2
  chem.cr 07102519423D
protac3895RUN2
 90 96  0  0  0  0  0  0  0  0999 V2000
    3.7234    6.0413    2.5725 O   0  0  0  0  0  0  0  0  0  0  0  0
    3.1248    5.0312    2.2282 C   0  0  0  0  0  0  0  0  0  0  0  0
    3.0440    3.7853    3.0797 C   0  0  0  0  0  0  0  0  0  0  0  0
    1.9038    2.8992    2.7620 N   0  0  0  0  0  0  0  0  0  0  0  0
    2.1141    1.6513    2.1659 C   0  0  0  0  0  0  0  0  0  0  0  0
    1.1353    0.7756    2.4962 C   0  0  0  0  0  0  0  0  0  0  0  0
    0.9374   -0.4874    1.9934 C   0  0  0  0  0  0  0  0  0  0  0  0
    1.7838   -1.1753    1.1869 C   0  0  0  0  0  0  0  0  0  0  0  0
    3.0083   -0.7496    0.7105 C   0  0  0  0  0  0  0  0  0  0  0  0
    4.1754   -0.9857    1.4616 C   0  0  0  0  0  0  0  0  0  0  0  0
    5.4275   -0.5658    0.9762 C   0  0  0  0  0  0  0  0  0  0  0  0
    5.5144    0.0937   -0.2591 C   0  0  0  0  0  0  0  0  0  0  0  0
    7.0778    0.6138   -0.8713 Cl  0  0  0  0  0  0  0  0  0  0  0  0
    4.3560    0.3246   -1.0183 C   0  0  0  0  0  0  0  0  0  0  0  0
    3.1040   -0.0970   -0.5377 C   0  0  0  0  0  0  0  0  0  0  0  0
    1.6567    0.2224   -1.5018 Cl  0  0  0  0  0  0  0  0  0  0  0  0
    1.2920   -2.3661    0.8447 C   0  0  0  0  0  0  0  0  0  0  0  0
    1.7066   -3.2730    0.1379 O   0  0  0  0  0  0  0  0  0  0  0  0
    0.0645   -2.5158    1.4561 N   0  0  0  0  0  0  0  0  0  0  0  0
   -0.1436   -1.3076    2.1159 C   0  0  0  0  0  0  0  0  0  0  0  0
   -1.2651   -1.1788    2.5859 O   0  0  0  0  0  0  0  0  0  0  0  0
    0.3438    1.4661    3.4357 C   0  0  0  0  0  0  0  0  0  0  0  0
   -0.6082    1.0262    4.3835 C   0  0  0  0  0  0  0  0  0  0  0  0
   -1.1987    1.9582    5.2679 C   0  0  0  0  0  0  0  0  0  0  0  0
   -0.8081    3.3132    5.2598 C   0  0  0  0  0  0  0  0  0  0  0  0
    0.2299    3.7326    4.4088 C   0  0  0  0  0  0  0  0  0  0  0  0
    0.7929    2.7848    3.5460 C   0  0  0  0  0  0  0  0  0  0  0  0
    2.6578    4.9299    0.9123 N   0  0  0  0  0  0  0  0  0  0  0  0
    2.7962    6.0074   -0.0787 C   0  0  0  0  0  0  0  0  0  0  0  0
    2.6531    5.4764   -1.5204 C   0  0  0  0  0  0  0  0  0  0  0  0
    1.4608    4.6792   -1.6461 O   0  0  0  0  0  0  0  0  0  0  0  0
    0.2096    5.3548   -1.4345 C   0  0  0  0  0  0  0  0  0  0  0  0
   -0.9000    4.4400   -1.9778 C   0  0  0  0  0  0  0  0  0  0  0  0
   -1.0726    3.3453   -1.0664 O   0  0  0  0  0  0  0  0  0  0  0  0
   -1.8253    2.2578   -1.6093 C   0  0  0  0  0  0  0  0  0  0  0  0
   -2.0018    1.2064   -0.5054 C   0  0  0  0  0  0  0  0  0  0  0  0
   -2.4176   -0.0617   -1.1255 N   0  0  0  0  0  0  0  0  0  0  0  0
   -3.2329   -1.0324   -0.5567 C   0  0  0  0  0  0  0  0  0  0  0  0
   -4.1560   -0.7734    0.4825 C   0  0  0  0  0  0  0  0  0  0  0  0
   -4.9508   -1.8138    1.0232 C   0  0  0  0  0  0  0  0  0  0  0  0
   -4.8341   -3.1347    0.5466 C   0  0  0  0  0  0  0  0  0  0  0  0
   -3.9134   -3.3800   -0.4790 C   0  0  0  0  0  0  0  0  0  0  0  0
   -3.1459   -2.3497   -1.0253 C   0  0  0  0  0  0  0  0  0  0  0  0
   -2.3523   -2.8878   -2.0127 C   0  0  0  0  0  0  0  0  0  0  0  0
   -1.7341   -2.2899   -2.8883 O   0  0  0  0  0  0  0  0  0  0  0  0
   -2.6410   -4.2494   -2.1155 N   0  0  0  0  0  0  0  0  0  0  0  0
   -1.9071   -5.2013   -2.9704 C   0  0  0  0  0  0  0  0  0  0  0  0
   -2.8608   -5.9650   -3.9099 C   0  0  0  0  0  0  0  0  0  0  0  0
   -2.0409   -6.8955   -4.8304 C   0  0  0  0  0  0  0  0  0  0  0  0
   -1.0602   -7.7600   -4.0624 C   0  0  0  0  0  0  0  0  0  0  0  0
   -0.5818   -8.7880   -4.5179 O   0  0  0  0  0  0  0  0  0  0  0  0
   -0.5210   -7.2839   -2.8584 N   0  0  0  0  0  0  0  0  0  0  0  0
   -1.0391   -6.1686   -2.1813 C   0  0  0  0  0  0  0  0  0  0  0  0
   -0.5300   -5.9031   -1.1005 O   0  0  0  0  0  0  0  0  0  0  0  0
   -3.5861   -4.5512   -1.1255 C   0  0  0  0  0  0  0  0  0  0  0  0
   -4.0941   -5.6599   -0.9979 O   0  0  0  0  0  0  0  0  0  0  0  0
    3.9761    3.2223    2.9685 H   0  0  0  0  0  0  0  0  0  0  0  0
    2.9734    4.0855    4.1319 H   0  0  0  0  0  0  0  0  0  0  0  0
    2.9392    1.5624    1.4692 H   0  0  0  0  0  0  0  0  0  0  0  0
    4.1088   -1.5035    2.4146 H   0  0  0  0  0  0  0  0  0  0  0  0
    6.3291   -0.7610    1.5515 H   0  0  0  0  0  0  0  0  0  0  0  0
    4.4273    0.8221   -1.9810 H   0  0  0  0  0  0  0  0  0  0  0  0
   -0.6750   -3.0919    1.0828 H   0  0  0  0  0  0  0  0  0  0  0  0
   -0.8582   -0.0170    4.5064 H   0  0  0  0  0  0  0  0  0  0  0  0
   -1.9449    1.6201    5.9840 H   0  0  0  0  0  0  0  0  0  0  0  0
   -1.2640    4.0195    5.9503 H   0  0  0  0  0  0  0  0  0  0  0  0
    0.5991    4.7542    4.4378 H   0  0  0  0  0  0  0  0  0  0  0  0
    2.1055    4.1164    0.6625 H   0  0  0  0  0  0  0  0  0  0  0  0
    3.7853    6.4736    0.0337 H   0  0  0  0  0  0  0  0  0  0  0  0
    2.0429    6.7800    0.1204 H   0  0  0  0  0  0  0  0  0  0  0  0
    3.5345    4.8625   -1.7560 H   0  0  0  0  0  0  0  0  0  0  0  0
    2.6380    6.3155   -2.2291 H   0  0  0  0  0  0  0  0  0  0  0  0
    0.1863    6.3058   -1.9788 H   0  0  0  0  0  0  0  0  0  0  0  0
    0.0340    5.5537   -0.3694 H   0  0  0  0  0  0  0  0  0  0  0  0
   -0.6109    4.0812   -2.9754 H   0  0  0  0  0  0  0  0  0  0  0  0
   -1.8392    5.0020   -2.0725 H   0  0  0  0  0  0  0  0  0  0  0  0
   -2.8103    2.5909   -1.9591 H   0  0  0  0  0  0  0  0  0  0  0  0
   -1.2842    1.8132   -2.4570 H   0  0  0  0  0  0  0  0  0  0  0  0
   -1.0500    1.0601    0.0231 H   0  0  0  0  0  0  0  0  0  0  0  0
   -2.7374    1.5740    0.2175 H   0  0  0  0  0  0  0  0  0  0  0  0
   -1.8726   -0.3859   -1.9188 H   0  0  0  0  0  0  0  0  0  0  0  0
   -4.2723    0.2277    0.8789 H   0  0  0  0  0  0  0  0  0  0  0  0
   -5.6583   -1.5947    1.8174 H   0  0  0  0  0  0  0  0  0  0  0  0
   -5.4301   -3.9428    0.9634 H   0  0  0  0  0  0  0  0  0  0  0  0
   -1.2157   -4.6136   -3.5886 H   0  0  0  0  0  0  0  0  0  0  0  0
   -3.4589   -5.2573   -4.4982 H   0  0  0  0  0  0  0  0  0  0  0  0
   -3.5661   -6.5645   -3.3153 H   0  0  0  0  0  0  0  0  0  0  0  0
   -2.7185   -7.5372   -5.4079 H   0  0  0  0  0  0  0  0  0  0  0  0
   -1.4780   -6.3007   -5.5610 H   0  0  0  0  0  0  0  0  0  0  0  0
    0.1912   -7.8331   -2.3983 H   0  0  0  0  0  0  0  0  0  0  0  0
  1  2  2  0  0  0  0
  2  3  1  0  0  0  0
  2 28  1  0  0  0  0
  3  4  1  0  0  0  0
  3 57  1  0  0  0  0
  3 58  1  0  0  0  0
  4  5  1  0  0  0  0
  4 27  1  0  0  0  0
  5  6  2  0  0  0  0
  5 59  1  0  0  0  0
  6  7  1  0  0  0  0
  6 22  1  0  0  0  0
  7  8  2  0  0  0  0
  7 20  1  0  0  0  0
  8  9  1  0  0  0  0
  8 17  1  0  0  0  0
  9 10  2  0  0  0  0
  9 15  1  0  0  0  0
 10 11  1  0  0  0  0
 10 60  1  0  0  0  0
 11 12  2  0  0  0  0
 11 61  1  0  0  0  0
 12 13  1  0  0  0  0
 12 14  1  0  0  0  0
 14 15  2  0  0  0  0
 14 62  1  0  0  0  0
 15 16  1  0  0  0  0
 17 18  2  0  0  0  0
 17 19  1  0  0  0  0
 19 20  1  0  0  0  0
 19 63  1  0  0  0  0
 20 21  2  0  0  0  0
 22 23  2  0  0  0  0
 22 27  1  0  0  0  0
 23 24  1  0  0  0  0
 23 64  1  0  0  0  0
 24 25  2  0  0  0  0
 24 65  1  0  0  0  0
 25 26  1  0  0  0  0
 25 66  1  0  0  0  0
 26 27  2  0  0  0  0
 26 67  1  0  0  0  0
 28 29  1  0  0  0  0
 28 68  1  0  0  0  0
 29 30  1  0  0  0  0
 29 69  1  0  0  0  0
 29 70  1  0  0  0  0
 30 31  1  0  0  0  0
 30 71  1  0  0  0  0
 30 72  1  0  0  0  0
 31 32  1  0  0  0  0
 32 33  1  0  0  0  0
 32 73  1  0  0  0  0
 32 74  1  0  0  0  0
 33 34  1  0  0  0  0
 33 75  1  0  0  0  0
 33 76  1  0  0  0  0
 34 35  1  0  0  0  0
 35 36  1  0  0  0  0
 35 77  1  0  0  0  0
 35 78  1  0  0  0  0
 36 37  1  0  0  0  0
 36 79  1  0  0  0  0
 36 80  1  0  0  0  0
 37 38  1  0  0  0  0
 37 81  1  0  0  0  0
 38 39  2  0  0  0  0
 38 43  1  0  0  0  0
 39 40  1  0  0  0  0
 39 82  1  0  0  0  0
 40 41  2  0  0  0  0
 40 83  1  0  0  0  0
 41 42  1  0  0  0  0
 41 84  1  0  0  0  0
 42 43  2  0  0  0  0
 42 55  1  0  0  0  0
 43 44  1  0  0  0  0
 44 45  2  0  0  0  0
 44 46  1  0  0  0  0
 46 47  1  0  0  0  0
 46 55  1  0  0  0  0
 47 48  1  0  0  0  0
 47 53  1  0  0  0  0
 47 85  1  0  0  0  0
 48 49  1  0  0  0  0
 48 86  1  0  0  0  0
 48 87  1  0  0  0  0
 49 50  1  0  0  0  0
 49 88  1  0  0  0  0
 49 89  1  0  0  0  0
 50 51  2  0  0  0  0
 50 52  1  0  0  0  0
 52 53  1  0  0  0  0
 52 90  1  0  0  0  0
 53 54  2  0  0  0  0
 55 56  2  0  0  0  0
M  END
$$$$
protac3895RUN2
  chem.cr 07102519423D
protac3895RUN2
 90 96  0  0  0  0  0  0  0  0999 V2000
    6.6082   -0.7072    3.7001 O   0  0  0  0  0  0  0  0  0  0  0  0
    5.4414   -1.0255    3.8656 C   0  0  0  0  0  0  0  0  0  0  0  0
    4.5046   -0.2558    4.7702 C   0  0  0  0  0  0  0  0  0  0  0  0
    3.3937    0.4234    4.0738 N   0  0  0  0  0  0  0  0  0  0  0  0
    3.4907    0.7932    2.7271 C   0  0  0  0  0  0  0  0  0  0  0  0
    2.2884    0.7026    2.1104 C   0  0  0  0  0  0  0  0  0  0  0  0
    2.0227    0.8225    0.7706 C   0  0  0  0  0  0  0  0  0  0  0  0
    2.8820    1.2711   -0.1761 C   0  0  0  0  0  0  0  0  0  0  0  0
    4.1488    1.7742    0.0432 C   0  0  0  0  0  0  0  0  0  0  0  0
    5.2791    0.9883   -0.2526 C   0  0  0  0  0  0  0  0  0  0  0  0
    6.5710    1.4821    0.0019 C   0  0  0  0  0  0  0  0  0  0  0  0
    6.7367    2.7684    0.5398 C   0  0  0  0  0  0  0  0  0  0  0  0
    8.3516    3.3919    0.8436 Cl  0  0  0  0  0  0  0  0  0  0  0  0
    5.6162    3.5627    0.8270 C   0  0  0  0  0  0  0  0  0  0  0  0
    4.3245    3.0687    0.5815 C   0  0  0  0  0  0  0  0  0  0  0  0
    2.9361    4.0866    0.9707 Cl  0  0  0  0  0  0  0  0  0  0  0  0
    2.3541    1.2150   -1.3995 C   0  0  0  0  0  0  0  0  0  0  0  0
    2.7754    1.5001   -2.5124 O   0  0  0  0  0  0  0  0  0  0  0  0
    1.0648    0.7332   -1.2833 N   0  0  0  0  0  0  0  0  0  0  0  0
    0.9079    0.4681    0.0757 C   0  0  0  0  0  0  0  0  0  0  0  0
   -0.1267   -0.1163    0.3609 O   0  0  0  0  0  0  0  0  0  0  0  0
    1.3777    0.3915    3.1354 C   0  0  0  0  0  0  0  0  0  0  0  0
   -0.0281    0.4879    3.2068 C   0  0  0  0  0  0  0  0  0  0  0  0
   -0.6841    0.2065    4.4245 C   0  0  0  0  0  0  0  0  0  0  0  0
    0.0490   -0.0904    5.5911 C   0  0  0  0  0  0  0  0  0  0  0  0
    1.4535   -0.0676    5.5591 C   0  0  0  0  0  0  0  0  0  0  0  0
    2.0754    0.1809    4.3286 C   0  0  0  0  0  0  0  0  0  0  0  0
    5.1374   -2.3669    3.6171 N   0  0  0  0  0  0  0  0  0  0  0  0
    3.9534   -2.7727    2.8444 C   0  0  0  0  0  0  0  0  0  0  0  0
    4.3210   -2.9313    1.3547 C   0  0  0  0  0  0  0  0  0  0  0  0
    3.2663   -3.6134    0.6589 O   0  0  0  0  0  0  0  0  0  0  0  0
    2.0276   -2.9017    0.5125 C   0  0  0  0  0  0  0  0  0  0  0  0
    1.1549   -3.7083   -0.4615 C   0  0  0  0  0  0  0  0  0  0  0  0
   -0.1822   -3.2018   -0.3723 O   0  0  0  0  0  0  0  0  0  0  0  0
   -1.1325   -3.8510   -1.2233 C   0  0  0  0  0  0  0  0  0  0  0  0
   -2.5392   -3.4283   -0.7583 C   0  0  0  0  0  0  0  0  0  0  0  0
   -2.8688   -2.0515   -1.1645 N   0  0  0  0  0  0  0  0  0  0  0  0
   -4.0433   -1.3888   -0.8142 C   0  0  0  0  0  0  0  0  0  0  0  0
   -4.8510   -1.7947    0.2777 C   0  0  0  0  0  0  0  0  0  0  0  0
   -6.0373   -1.0978    0.6149 C   0  0  0  0  0  0  0  0  0  0  0  0
   -6.4528    0.0143   -0.1423 C   0  0  0  0  0  0  0  0  0  0  0  0
   -5.6548    0.4022   -1.2240 C   0  0  0  0  0  0  0  0  0  0  0  0
   -4.4781   -0.2754   -1.5480 C   0  0  0  0  0  0  0  0  0  0  0  0
   -3.9403    0.3364   -2.6587 C   0  0  0  0  0  0  0  0  0  0  0  0
   -2.9137    0.0560   -3.2664 O   0  0  0  0  0  0  0  0  0  0  0  0
   -4.7684    1.4022   -3.0360 N   0  0  0  0  0  0  0  0  0  0  0  0
   -4.8162    1.9832   -4.3943 C   0  0  0  0  0  0  0  0  0  0  0  0
   -4.5613    3.5036   -4.3295 C   0  0  0  0  0  0  0  0  0  0  0  0
   -4.7386    4.1308   -5.7286 C   0  0  0  0  0  0  0  0  0  0  0  0
   -6.0924    3.7985   -6.3138 C   0  0  0  0  0  0  0  0  0  0  0  0
   -6.6622    4.5023   -7.1334 O   0  0  0  0  0  0  0  0  0  0  0  0
   -6.6318    2.5295   -6.0784 N   0  0  0  0  0  0  0  0  0  0  0  0
   -6.1143    1.6408   -5.1238 C   0  0  0  0  0  0  0  0  0  0  0  0
   -6.6427    0.5377   -5.0841 O   0  0  0  0  0  0  0  0  0  0  0  0
   -5.8378    1.4176   -2.1321 C   0  0  0  0  0  0  0  0  0  0  0  0
   -6.6602    2.3271   -2.0944 O   0  0  0  0  0  0  0  0  0  0  0  0
    4.0930   -0.9448    5.5159 H   0  0  0  0  0  0  0  0  0  0  0  0
    5.0862    0.5033    5.3068 H   0  0  0  0  0  0  0  0  0  0  0  0
    4.4815    0.9853    2.3270 H   0  0  0  0  0  0  0  0  0  0  0  0
    5.1515   -0.0057   -0.6748 H   0  0  0  0  0  0  0  0  0  0  0  0
    7.4423    0.8718   -0.2195 H   0  0  0  0  0  0  0  0  0  0  0  0
    5.7470    4.5603    1.2403 H   0  0  0  0  0  0  0  0  0  0  0  0
    0.5508    0.2695   -2.0171 H   0  0  0  0  0  0  0  0  0  0  0  0
   -0.6251    0.8407    2.3790 H   0  0  0  0  0  0  0  0  0  0  0  0
   -1.7677    0.2646    4.4708 H   0  0  0  0  0  0  0  0  0  0  0  0
   -0.4708   -0.2725    6.5273 H   0  0  0  0  0  0  0  0  0  0  0  0
    2.0322   -0.1965    6.4690 H   0  0  0  0  0  0  0  0  0  0  0  0
    5.9400   -2.9844    3.5775 H   0  0  0  0  0  0  0  0  0  0  0  0
    3.1507   -2.0320    2.9551 H   0  0  0  0  0  0  0  0  0  0  0  0
    3.5827   -3.7309    3.2324 H   0  0  0  0  0  0  0  0  0  0  0  0
    5.2416   -3.5242    1.2778 H   0  0  0  0  0  0  0  0  0  0  0  0
    4.5174   -1.9483    0.9091 H   0  0  0  0  0  0  0  0  0  0  0  0
    2.1960   -1.9012    0.0976 H   0  0  0  0  0  0  0  0  0  0  0  0
    1.5098   -2.8052    1.4756 H   0  0  0  0  0  0  0  0  0  0  0  0
    1.1813   -4.7685   -0.1781 H   0  0  0  0  0  0  0  0  0  0  0  0
    1.5493   -3.6063   -1.4808 H   0  0  0  0  0  0  0  0  0  0  0  0
   -0.9738   -3.5821   -2.2757 H   0  0  0  0  0  0  0  0  0  0  0  0
   -1.0424   -4.9413   -1.1291 H   0  0  0  0  0  0  0  0  0  0  0  0
   -3.2794   -4.1162   -1.1878 H   0  0  0  0  0  0  0  0  0  0  0  0
   -2.5836   -3.5262    0.3329 H   0  0  0  0  0  0  0  0  0  0  0  0
   -2.2944   -1.6065   -1.8734 H   0  0  0  0  0  0  0  0  0  0  0  0
   -4.5620   -2.6456    0.8849 H   0  0  0  0  0  0  0  0  0  0  0  0
   -6.6358   -1.4238    1.4618 H   0  0  0  0  0  0  0  0  0  0  0  0
   -7.3668    0.5545    0.0942 H   0  0  0  0  0  0  0  0  0  0  0  0
   -4.0063    1.5326   -4.9815 H   0  0  0  0  0  0  0  0  0  0  0  0
   -3.5568    3.6990   -3.9317 H   0  0  0  0  0  0  0  0  0  0  0  0
   -5.2739    3.9627   -3.6319 H   0  0  0  0  0  0  0  0  0  0  0  0
   -4.6274    5.2206   -5.6700 H   0  0  0  0  0  0  0  0  0  0  0  0
   -3.9568    3.7719   -6.4090 H   0  0  0  0  0  0  0  0  0  0  0  0
   -7.4797    2.2690   -6.5607 H   0  0  0  0  0  0  0  0  0  0  0  0
  1  2  2  0  0  0  0
  2  3  1  0  0  0  0
  2 28  1  0  0  0  0
  3  4  1  0  0  0  0
  3 57  1  0  0  0  0
  3 58  1  0  0  0  0
  4  5  1  0  0  0  0
  4 27  1  0  0  0  0
  5  6  2  0  0  0  0
  5 59  1  0  0  0  0
  6  7  1  0  0  0  0
  6 22  1  0  0  0  0
  7  8  2  0  0  0  0
  7 20  1  0  0  0  0
  8  9  1  0  0  0  0
  8 17  1  0  0  0  0
  9 10  2  0  0  0  0
  9 15  1  0  0  0  0
 10 11  1  0  0  0  0
 10 60  1  0  0  0  0
 11 12  2  0  0  0  0
 11 61  1  0  0  0  0
 12 13  1  0  0  0  0
 12 14  1  0  0  0  0
 14 15  2  0  0  0  0
 14 62  1  0  0  0  0
 15 16  1  0  0  0  0
 17 18  2  0  0  0  0
 17 19  1  0  0  0  0
 19 20  1  0  0  0  0
 19 63  1  0  0  0  0
 20 21  2  0  0  0  0
 22 23  2  0  0  0  0
 22 27  1  0  0  0  0
 23 24  1  0  0  0  0
 23 64  1  0  0  0  0
 24 25  2  0  0  0  0
 24 65  1  0  0  0  0
 25 26  1  0  0  0  0
 25 66  1  0  0  0  0
 26 27  2  0  0  0  0
 26 67  1  0  0  0  0
 28 29  1  0  0  0  0
 28 68  1  0  0  0  0
 29 30  1  0  0  0  0
 29 69  1  0  0  0  0
 29 70  1  0  0  0  0
 30 31  1  0  0  0  0
 30 71  1  0  0  0  0
 30 72  1  0  0  0  0
 31 32  1  0  0  0  0
 32 33  1  0  0  0  0
 32 73  1  0  0  0  0
 32 74  1  0  0  0  0
 33 34  1  0  0  0  0
 33 75  1  0  0  0  0
 33 76  1  0  0  0  0
 34 35  1  0  0  0  0
 35 36  1  0  0  0  0
 35 77  1  0  0  0  0
 35 78  1  0  0  0  0
 36 37  1  0  0  0  0
 36 79  1  0  0  0  0
 36 80  1  0  0  0  0
 37 38  1  0  0  0  0
 37 81  1  0  0  0  0
 38 39  2  0  0  0  0
 38 43  1  0  0  0  0
 39 40  1  0  0  0  0
 39 82  1  0  0  0  0
 40 41  2  0  0  0  0
 40 83  1  0  0  0  0
 41 42  1  0  0  0  0
 41 84  1  0  0  0  0
 42 43  2  0  0  0  0
 42 55  1  0  0  0  0
 43 44  1  0  0  0  0
 44 45  2  0  0  0  0
 44 46  1  0  0  0  0
 46 47  1  0  0  0  0
 46 55  1  0  0  0  0
 47 48  1  0  0  0  0
 47 53  1  0  0  0  0
 47 85  1  0  0  0  0
 48 49  1  0  0  0  0
 48 86  1  0  0  0  0
 48 87  1  0  0  0  0
 49 50  1  0  0  0  0
 49 88  1  0  0  0  0
 49 89  1  0  0  0  0
 50 51  2  0  0  0  0
 50 52  1  0  0  0  0
 52 53  1  0  0  0  0
 52 90  1  0  0  0  0
 53 54  2  0  0  0  0
 55 56  2  0  0  0  0
M  END
$$$$
protac3895RUN2
  chem.cr 07102519423D
protac3895RUN2
 90 96  0  0  0  0  0  0  0  0999 V2000
    4.2244   -2.7085    2.2742 O   0  0  0  0  0  0  0  0  0  0  0  0
    3.3785   -2.4115    1.4406 C   0  0  0  0  0  0  0  0  0  0  0  0
    3.6192   -2.4149   -0.0488 C   0  0  0  0  0  0  0  0  0  0  0  0
    3.7802   -1.0529   -0.6056 N   0  0  0  0  0  0  0  0  0  0  0  0
    4.7499   -0.2131   -0.0488 C   0  0  0  0  0  0  0  0  0  0  0  0
    4.3669    1.0865   -0.0771 C   0  0  0  0  0  0  0  0  0  0  0  0
    5.1231    2.1939    0.2265 C   0  0  0  0  0  0  0  0  0  0  0  0
    6.3702    2.1874    0.7570 C   0  0  0  0  0  0  0  0  0  0  0  0
    7.1125    1.0778    1.1077 C   0  0  0  0  0  0  0  0  0  0  0  0
    8.0627    0.5752    0.1975 C   0  0  0  0  0  0  0  0  0  0  0  0
    8.8209   -0.5630    0.5196 C   0  0  0  0  0  0  0  0  0  0  0  0
    8.6385   -1.1991    1.7601 C   0  0  0  0  0  0  0  0  0  0  0  0
    9.5956   -2.6184    2.1718 Cl  0  0  0  0  0  0  0  0  0  0  0  0
    7.6965   -0.7001    2.6750 C   0  0  0  0  0  0  0  0  0  0  0  0
    6.9327    0.4344    2.3526 C   0  0  0  0  0  0  0  0  0  0  0  0
    5.7357    1.0187    3.5094 Cl  0  0  0  0  0  0  0  0  0  0  0  0
    6.8670    3.4172    0.8932 C   0  0  0  0  0  0  0  0  0  0  0  0
    7.9429    3.8490    1.2840 O   0  0  0  0  0  0  0  0  0  0  0  0
    5.9130    4.3141    0.4608 N   0  0  0  0  0  0  0  0  0  0  0  0
    4.8646    3.5132    0.0106 C   0  0  0  0  0  0  0  0  0  0  0  0
    3.9776    4.1322   -0.5560 O   0  0  0  0  0  0  0  0  0  0  0  0
    3.0420    1.0518   -0.5494 C   0  0  0  0  0  0  0  0  0  0  0  0
    1.9941    1.9952   -0.5058 C   0  0  0  0  0  0  0  0  0  0  0  0
    0.7316    1.6583   -1.0405 C   0  0  0  0  0  0  0  0  0  0  0  0
    0.4861    0.3705   -1.5530 C   0  0  0  0  0  0  0  0  0  0  0  0
    1.4785   -0.6180   -1.4700 C   0  0  0  0  0  0  0  0  0  0  0  0
    2.7222   -0.2524   -0.9420 C   0  0  0  0  0  0  0  0  0  0  0  0
    2.1791   -1.8175    1.8530 N   0  0  0  0  0  0  0  0  0  0  0  0
    2.0478   -1.0332    3.0852 C   0  0  0  0  0  0  0  0  0  0  0  0
    1.2697    0.2723    2.7908 C   0  0  0  0  0  0  0  0  0  0  0  0
    0.1517   -0.0243    1.9352 O   0  0  0  0  0  0  0  0  0  0  0  0
   -0.9498   -0.7249    2.5278 C   0  0  0  0  0  0  0  0  0  0  0  0
   -1.8194   -1.2728    1.3824 C   0  0  0  0  0  0  0  0  0  0  0  0
   -1.2268   -2.5085    0.9337 O   0  0  0  0  0  0  0  0  0  0  0  0
   -2.0162   -3.3236    0.0442 C   0  0  0  0  0  0  0  0  0  0  0  0
   -1.7883   -2.9073   -1.4276 C   0  0  0  0  0  0  0  0  0  0  0  0
   -2.4246   -1.6179   -1.7348 N   0  0  0  0  0  0  0  0  0  0  0  0
   -3.4686   -1.4299   -2.6268 C   0  0  0  0  0  0  0  0  0  0  0  0
   -3.6625   -2.2274   -3.7798 C   0  0  0  0  0  0  0  0  0  0  0  0
   -4.7759   -2.0163   -4.6301 C   0  0  0  0  0  0  0  0  0  0  0  0
   -5.7197   -1.0081   -4.3400 C   0  0  0  0  0  0  0  0  0  0  0  0
   -5.5065   -0.2153   -3.2035 C   0  0  0  0  0  0  0  0  0  0  0  0
   -4.3953   -0.4086   -2.3874 C   0  0  0  0  0  0  0  0  0  0  0  0
   -4.4550    0.5125   -1.3716 C   0  0  0  0  0  0  0  0  0  0  0  0
   -3.5425    0.8911   -0.6465 O   0  0  0  0  0  0  0  0  0  0  0  0
   -5.6322    1.2575   -1.5079 N   0  0  0  0  0  0  0  0  0  0  0  0
   -6.1123    2.2484   -0.5059 C   0  0  0  0  0  0  0  0  0  0  0  0
   -6.3067    1.5816    0.8767 C   0  0  0  0  0  0  0  0  0  0  0  0
   -7.5160    0.6237    0.8052 C   0  0  0  0  0  0  0  0  0  0  0  0
   -8.7588    1.3126    0.2783 C   0  0  0  0  0  0  0  0  0  0  0  0
   -9.8921    0.9535    0.5621 O   0  0  0  0  0  0  0  0  0  0  0  0
   -8.6272    2.4870   -0.4773 N   0  0  0  0  0  0  0  0  0  0  0  0
   -7.3863    2.9887   -0.8974 C   0  0  0  0  0  0  0  0  0  0  0  0
   -7.3952    4.0966   -1.4136 O   0  0  0  0  0  0  0  0  0  0  0  0
   -6.2684    0.8051   -2.6812 C   0  0  0  0  0  0  0  0  0  0  0  0
   -7.4437    1.0307   -2.9406 O   0  0  0  0  0  0  0  0  0  0  0  0
    4.5247   -2.9915   -0.2600 H   0  0  0  0  0  0  0  0  0  0  0  0
    2.7821   -2.9137   -0.5457 H   0  0  0  0  0  0  0  0  0  0  0  0
    5.6851   -0.6727    0.2544 H   0  0  0  0  0  0  0  0  0  0  0  0
    8.2043    1.0690   -0.7613 H   0  0  0  0  0  0  0  0  0  0  0  0
    9.5505   -0.9502   -0.1896 H   0  0  0  0  0  0  0  0  0  0  0  0
    7.5569   -1.1933    3.6345 H   0  0  0  0  0  0  0  0  0  0  0  0
    6.1252    5.2208    0.0789 H   0  0  0  0  0  0  0  0  0  0  0  0
    2.0991    2.9565   -0.0227 H   0  0  0  0  0  0  0  0  0  0  0  0
   -0.0697    2.3947   -1.0314 H   0  0  0  0  0  0  0  0  0  0  0  0
   -0.4895    0.1374   -1.9607 H   0  0  0  0  0  0  0  0  0  0  0  0
    1.2840   -1.6307   -1.7963 H   0  0  0  0  0  0  0  0  0  0  0  0
    1.5019   -1.5950    1.1285 H   0  0  0  0  0  0  0  0  0  0  0  0
    3.0454   -0.7838    3.4789 H   0  0  0  0  0  0  0  0  0  0  0  0
    1.5239   -1.6316    3.8424 H   0  0  0  0  0  0  0  0  0  0  0  0
    1.9428    0.9670    2.2701 H   0  0  0  0  0  0  0  0  0  0  0  0
    0.9446    0.7508    3.7222 H   0  0  0  0  0  0  0  0  0  0  0  0
   -1.5445   -0.0374    3.1432 H   0  0  0  0  0  0  0  0  0  0  0  0
   -0.6193   -1.5629    3.1561 H   0  0  0  0  0  0  0  0  0  0  0  0
   -1.8636   -0.5255    0.5856 H   0  0  0  0  0  0  0  0  0  0  0  0
   -2.8360   -1.4482    1.7518 H   0  0  0  0  0  0  0  0  0  0  0  0
   -1.7029   -4.3694    0.1504 H   0  0  0  0  0  0  0  0  0  0  0  0
   -3.0862   -3.2741    0.2969 H   0  0  0  0  0  0  0  0  0  0  0  0
   -0.7087   -2.8485   -1.6213 H   0  0  0  0  0  0  0  0  0  0  0  0
   -2.1971   -3.6972   -2.0692 H   0  0  0  0  0  0  0  0  0  0  0  0
   -2.3198   -0.8821   -1.0420 H   0  0  0  0  0  0  0  0  0  0  0  0
   -2.9466   -3.0042   -4.0298 H   0  0  0  0  0  0  0  0  0  0  0  0
   -4.9055   -2.6415   -5.5103 H   0  0  0  0  0  0  0  0  0  0  0  0
   -6.5814   -0.8472   -4.9820 H   0  0  0  0  0  0  0  0  0  0  0  0
   -5.3240    3.0073   -0.4077 H   0  0  0  0  0  0  0  0  0  0  0  0
   -6.4859    2.3574    1.6357 H   0  0  0  0  0  0  0  0  0  0  0  0
   -5.4012    1.0430    1.1863 H   0  0  0  0  0  0  0  0  0  0  0  0
   -7.2836   -0.2224    0.1489 H   0  0  0  0  0  0  0  0  0  0  0  0
   -7.7284    0.2062    1.7948 H   0  0  0  0  0  0  0  0  0  0  0  0
   -9.4637    2.9657   -0.7805 H   0  0  0  0  0  0  0  0  0  0  0  0
  1  2  2  0  0  0  0
  2  3  1  0  0  0  0
  2 28  1  0  0  0  0
  3  4  1  0  0  0  0
  3 57  1  0  0  0  0
  3 58  1  0  0  0  0
  4  5  1  0  0  0  0
  4 27  1  0  0  0  0
  5  6  2  0  0  0  0
  5 59  1  0  0  0  0
  6  7  1  0  0  0  0
  6 22  1  0  0  0  0
  7  8  2  0  0  0  0
  7 20  1  0  0  0  0
  8  9  1  0  0  0  0
  8 17  1  0  0  0  0
  9 10  2  0  0  0  0
  9 15  1  0  0  0  0
 10 11  1  0  0  0  0
 10 60  1  0  0  0  0
 11 12  2  0  0  0  0
 11 61  1  0  0  0  0
 12 13  1  0  0  0  0
 12 14  1  0  0  0  0
 14 15  2  0  0  0  0
 14 62  1  0  0  0  0
 15 16  1  0  0  0  0
 17 18  2  0  0  0  0
 17 19  1  0  0  0  0
 19 20  1  0  0  0  0
 19 63  1  0  0  0  0
 20 21  2  0  0  0  0
 22 23  2  0  0  0  0
 22 27  1  0  0  0  0
 23 24  1  0  0  0  0
 23 64  1  0  0  0  0
 24 25  2  0  0  0  0
 24 65  1  0  0  0  0
 25 26  1  0  0  0  0
 25 66  1  0  0  0  0
 26 27  2  0  0  0  0
 26 67  1  0  0  0  0
 28 29  1  0  0  0  0
 28 68  1  0  0  0  0
 29 30  1  0  0  0  0
 29 69  1  0  0  0  0
 29 70  1  0  0  0  0
 30 31  1  0  0  0  0
 30 71  1  0  0  0  0
 30 72  1  0  0  0  0
 31 32  1  0  0  0  0
 32 33  1  0  0  0  0
 32 73  1  0  0  0  0
 32 74  1  0  0  0  0
 33 34  1  0  0  0  0
 33 75  1  0  0  0  0
 33 76  1  0  0  0  0
 34 35  1  0  0  0  0
 35 36  1  0  0  0  0
 35 77  1  0  0  0  0
 35 78  1  0  0  0  0
 36 37  1  0  0  0  0
 36 79  1  0  0  0  0
 36 80  1  0  0  0  0
 37 38  1  0  0  0  0
 37 81  1  0  0  0  0
 38 39  2  0  0  0  0
 38 43  1  0  0  0  0
 39 40  1  0  0  0  0
 39 82  1  0  0  0  0
 40 41  2  0  0  0  0
 40 83  1  0  0  0  0
 41 42  1  0  0  0  0
 41 84  1  0  0  0  0
 42 43  2  0  0  0  0
 42 55  1  0  0  0  0
 43 44  1  0  0  0  0
 44 45  2  0  0  0  0
 44 46  1  0  0  0  0
 46 47  1  0  0  0  0
 46 55  1  0  0  0  0
 47 48  1  0  0  0  0
 47 53  1  0  0  0  0
 47 85  1  0  0  0  0
 48 49  1  0  0  0  0
 48 86  1  0  0  0  0
 48 87  1  0  0  0  0
 49 50  1  0  0  0  0
 49 88  1  0  0  0  0
 49 89  1  0  0  0  0
 50 51  2  0  0  0  0
 50 52  1  0  0  0  0
 52 53  1  0  0  0  0
 52 90  1  0  0  0  0
 53 54  2  0  0  0  0
 55 56  2  0  0  0  0
M  END
$$$$
protac3895RUN2
  chem.cr 07102519423D
protac3895RUN2
 90 96  0  0  0  0  0  0  0  0999 V2000
   -0.8381    3.8384    0.4009 O   0  0  0  0  0  0  0  0  0  0  0  0
   -0.2547    3.2462   -0.4951 C   0  0  0  0  0  0  0  0  0  0  0  0
   -0.6400    3.3147   -1.9566 C   0  0  0  0  0  0  0  0  0  0  0  0
   -1.8788    4.0703   -2.2140 N   0  0  0  0  0  0  0  0  0  0  0  0
   -3.1004    3.4004   -2.3256 C   0  0  0  0  0  0  0  0  0  0  0  0
   -3.9608    4.0844   -3.1130 C   0  0  0  0  0  0  0  0  0  0  0  0
   -5.2920    3.8015   -3.2816 C   0  0  0  0  0  0  0  0  0  0  0  0
   -6.3261    4.5275   -3.7873 C   0  0  0  0  0  0  0  0  0  0  0  0
   -6.3346    5.8530   -4.1872 C   0  0  0  0  0  0  0  0  0  0  0  0
   -6.7668    6.1710   -5.4933 C   0  0  0  0  0  0  0  0  0  0  0  0
   -6.7780    7.5034   -5.9384 C   0  0  0  0  0  0  0  0  0  0  0  0
   -6.3801    8.5333   -5.0718 C   0  0  0  0  0  0  0  0  0  0  0  0
   -6.3849   10.1999   -5.6300 Cl  0  0  0  0  0  0  0  0  0  0  0  0
   -6.0001    8.2382   -3.7536 C   0  0  0  0  0  0  0  0  0  0  0  0
   -5.9911    6.9068   -3.3027 C   0  0  0  0  0  0  0  0  0  0  0  0
   -5.5715    6.5994   -1.6144 Cl  0  0  0  0  0  0  0  0  0  0  0  0
   -7.4712    3.8399   -3.7294 C   0  0  0  0  0  0  0  0  0  0  0  0
   -8.6316    4.1154   -4.0070 O   0  0  0  0  0  0  0  0  0  0  0  0
   -7.2152    2.5955   -3.1868 N   0  0  0  0  0  0  0  0  0  0  0  0
   -5.8606    2.6395   -2.8715 C   0  0  0  0  0  0  0  0  0  0  0  0
   -5.4201    1.6364   -2.3210 O   0  0  0  0  0  0  0  0  0  0  0  0
   -3.2056    5.1529   -3.6294 C   0  0  0  0  0  0  0  0  0  0  0  0
   -3.3940    5.9861   -4.7493 C   0  0  0  0  0  0  0  0  0  0  0  0
   -2.4162    6.9533   -5.0721 C   0  0  0  0  0  0  0  0  0  0  0  0
   -1.2168    7.0441   -4.3345 C   0  0  0  0  0  0  0  0  0  0  0  0
   -0.9584    6.1187   -3.3088 C   0  0  0  0  0  0  0  0  0  0  0  0
   -1.9516    5.1762   -3.0136 C   0  0  0  0  0  0  0  0  0  0  0  0
    1.0866    2.9626   -0.2440 N   0  0  0  0  0  0  0  0  0  0  0  0
    1.4890    1.5975    0.1190 C   0  0  0  0  0  0  0  0  0  0  0  0
    1.6509    0.6535   -1.0875 C   0  0  0  0  0  0  0  0  0  0  0  0
    0.3419    0.2193   -1.4897 O   0  0  0  0  0  0  0  0  0  0  0  0
    0.2851   -0.8880   -2.4102 C   0  0  0  0  0  0  0  0  0  0  0  0
    0.4762   -2.2088   -1.6311 C   0  0  0  0  0  0  0  0  0  0  0  0
    1.8861   -2.4463   -1.4705 O   0  0  0  0  0  0  0  0  0  0  0  0
    2.2612   -3.3972   -0.4642 C   0  0  0  0  0  0  0  0  0  0  0  0
    2.1363   -2.7207    0.9156 C   0  0  0  0  0  0  0  0  0  0  0  0
    2.6373   -3.6209    1.9628 N   0  0  0  0  0  0  0  0  0  0  0  0
    3.9066   -3.6121    2.5314 C   0  0  0  0  0  0  0  0  0  0  0  0
    4.9083   -2.6565    2.2259 C   0  0  0  0  0  0  0  0  0  0  0  0
    6.1729   -2.6975    2.8643 C   0  0  0  0  0  0  0  0  0  0  0  0
    6.4663   -3.6940    3.8172 C   0  0  0  0  0  0  0  0  0  0  0  0
    5.4763   -4.6426    4.0979 C   0  0  0  0  0  0  0  0  0  0  0  0
    4.2321   -4.6001    3.4676 C   0  0  0  0  0  0  0  0  0  0  0  0
    3.4798   -5.6444    3.9499 C   0  0  0  0  0  0  0  0  0  0  0  0
    2.2777   -5.8429    3.8156 O   0  0  0  0  0  0  0  0  0  0  0  0
    4.2361   -6.3213    4.9054 N   0  0  0  0  0  0  0  0  0  0  0  0
    3.7872   -7.5070    5.6574 C   0  0  0  0  0  0  0  0  0  0  0  0
    3.2519   -7.0705    7.0368 C   0  0  0  0  0  0  0  0  0  0  0  0
    2.8517   -8.3129    7.8565 C   0  0  0  0  0  0  0  0  0  0  0  0
    3.9977   -9.2924    7.9642 C   0  0  0  0  0  0  0  0  0  0  0  0
    4.1154  -10.0877    8.8840 O   0  0  0  0  0  0  0  0  0  0  0  0
    4.8541   -9.4537    6.8690 N   0  0  0  0  0  0  0  0  0  0  0  0
    4.8589   -8.5893    5.7631 C   0  0  0  0  0  0  0  0  0  0  0  0
    5.5656   -8.9341    4.8250 O   0  0  0  0  0  0  0  0  0  0  0  0
    5.4920   -5.7027    4.9784 C   0  0  0  0  0  0  0  0  0  0  0  0
    6.2152   -5.8350    5.9586 O   0  0  0  0  0  0  0  0  0  0  0  0
    0.1772    3.7719   -2.5240 H   0  0  0  0  0  0  0  0  0  0  0  0
   -0.7676    2.2973   -2.3413 H   0  0  0  0  0  0  0  0  0  0  0  0
   -3.2630    2.5230   -1.7055 H   0  0  0  0  0  0  0  0  0  0  0  0
   -7.0790    5.3769   -6.1666 H   0  0  0  0  0  0  0  0  0  0  0  0
   -7.0964    7.7375   -6.9517 H   0  0  0  0  0  0  0  0  0  0  0  0
   -5.7198    9.0408   -3.0776 H   0  0  0  0  0  0  0  0  0  0  0  0
   -7.8880    2.0775   -2.6436 H   0  0  0  0  0  0  0  0  0  0  0  0
   -4.2425    5.8728   -5.4044 H   0  0  0  0  0  0  0  0  0  0  0  0
   -2.5790    7.6172   -5.9169 H   0  0  0  0  0  0  0  0  0  0  0  0
   -0.4707    7.7904   -4.5948 H   0  0  0  0  0  0  0  0  0  0  0  0
   -0.0133    6.1234   -2.7749 H   0  0  0  0  0  0  0  0  0  0  0  0
    1.5816    3.7087    0.2290 H   0  0  0  0  0  0  0  0  0  0  0  0
    0.7431    1.1746    0.8066 H   0  0  0  0  0  0  0  0  0  0  0  0
    2.4431    1.6517    0.6585 H   0  0  0  0  0  0  0  0  0  0  0  0
    2.2660   -0.1949   -0.7724 H   0  0  0  0  0  0  0  0  0  0  0  0
    2.1710    1.1599   -1.9105 H   0  0  0  0  0  0  0  0  0  0  0  0
    1.0399   -0.7963   -3.2021 H   0  0  0  0  0  0  0  0  0  0  0  0
   -0.7003   -0.9118   -2.8923 H   0  0  0  0  0  0  0  0  0  0  0  0
    0.0213   -3.0353   -2.1932 H   0  0  0  0  0  0  0  0  0  0  0  0
   -0.0442   -2.1265   -0.6689 H   0  0  0  0  0  0  0  0  0  0  0  0
    1.6319   -4.2956   -0.5109 H   0  0  0  0  0  0  0  0  0  0  0  0
    3.3036   -3.7056   -0.6158 H   0  0  0  0  0  0  0  0  0  0  0  0
    2.6808   -1.7707    0.9129 H   0  0  0  0  0  0  0  0  0  0  0  0
    1.0862   -2.4847    1.1254 H   0  0  0  0  0  0  0  0  0  0  0  0
    2.0209   -4.3579    2.2925 H   0  0  0  0  0  0  0  0  0  0  0  0
    4.7248   -1.8768    1.4962 H   0  0  0  0  0  0  0  0  0  0  0  0
    6.9258   -1.9510    2.6213 H   0  0  0  0  0  0  0  0  0  0  0  0
    7.4308   -3.7320    4.3191 H   0  0  0  0  0  0  0  0  0  0  0  0
    2.9570   -7.9562    5.0957 H   0  0  0  0  0  0  0  0  0  0  0  0
    2.3980   -6.3911    6.9100 H   0  0  0  0  0  0  0  0  0  0  0  0
    4.0360   -6.5122    7.5683 H   0  0  0  0  0  0  0  0  0  0  0  0
    2.5315   -8.0137    8.8633 H   0  0  0  0  0  0  0  0  0  0  0  0
    1.9965   -8.8179    7.3894 H   0  0  0  0  0  0  0  0  0  0  0  0
    5.5400  -10.1931    6.8991 H   0  0  0  0  0  0  0  0  0  0  0  0
  1  2  2  0  0  0  0
  2  3  1  0  0  0  0
  2 28  1  0  0  0  0
  3  4  1  0  0  0  0
  3 57  1  0  0  0  0
  3 58  1  0  0  0  0
  4  5  1  0  0  0  0
  4 27  1  0  0  0  0
  5  6  2  0  0  0  0
  5 59  1  0  0  0  0
  6  7  1  0  0  0  0
  6 22  1  0  0  0  0
  7  8  2  0  0  0  0
  7 20  1  0  0  0  0
  8  9  1  0  0  0  0
  8 17  1  0  0  0  0
  9 10  2  0  0  0  0
  9 15  1  0  0  0  0
 10 11  1  0  0  0  0
 10 60  1  0  0  0  0
 11 12  2  0  0  0  0
 11 61  1  0  0  0  0
 12 13  1  0  0  0  0
 12 14  1  0  0  0  0
 14 15  2  0  0  0  0
 14 62  1  0  0  0  0
 15 16  1  0  0  0  0
 17 18  2  0  0  0  0
 17 19  1  0  0  0  0
 19 20  1  0  0  0  0
 19 63  1  0  0  0  0
 20 21  2  0  0  0  0
 22 23  2  0  0  0  0
 22 27  1  0  0  0  0
 23 24  1  0  0  0  0
 23 64  1  0  0  0  0
 24 25  2  0  0  0  0
 24 65  1  0  0  0  0
 25 26  1  0  0  0  0
 25 66  1  0  0  0  0
 26 27  2  0  0  0  0
 26 67  1  0  0  0  0
 28 29  1  0  0  0  0
 28 68  1  0  0  0  0
 29 30  1  0  0  0  0
 29 69  1  0  0  0  0
 29 70  1  0  0  0  0
 30 31  1  0  0  0  0
 30 71  1  0  0  0  0
 30 72  1  0  0  0  0
 31 32  1  0  0  0  0
 32 33  1  0  0  0  0
 32 73  1  0  0  0  0
 32 74  1  0  0  0  0
 33 34  1  0  0  0  0
 33 75  1  0  0  0  0
 33 76  1  0  0  0  0
 34 35  1  0  0  0  0
 35 36  1  0  0  0  0
 35 77  1  0  0  0  0
 35 78  1  0  0  0  0
 36 37  1  0  0  0  0
 36 79  1  0  0  0  0
 36 80  1  0  0  0  0
 37 38  1  0  0  0  0
 37 81  1  0  0  0  0
 38 39  2  0  0  0  0
 38 43  1  0  0  0  0
 39 40  1  0  0  0  0
 39 82  1  0  0  0  0
 40 41  2  0  0  0  0
 40 83  1  0  0  0  0
 41 42  1  0  0  0  0
 41 84  1  0  0  0  0
 42 43  2  0  0  0  0
 42 55  1  0  0  0  0
 43 44  1  0  0  0  0
 44 45  2  0  0  0  0
 44 46  1  0  0  0  0
 46 47  1  0  0  0  0
 46 55  1  0  0  0  0
 47 48  1  0  0  0  0
 47 53  1  0  0  0  0
 47 85  1  0  0  0  0
 48 49  1  0  0  0  0
 48 86  1  0  0  0  0
 48 87  1  0  0  0  0
 49 50  1  0  0  0  0
 49 88  1  0  0  0  0
 49 89  1  0  0  0  0
 50 51  2  0  0  0  0
 50 52  1  0  0  0  0
 52 53  1  0  0  0  0
 52 90  1  0  0  0  0
 53 54  2  0  0  0  0
 55 56  2  0  0  0  0
M  END
$$$$
protac3895RUN2
  chem.cr 07102519423D
protac3895RUN2
 90 96  0  0  0  0  0  0  0  0999 V2000
    1.4371    0.0568   -3.5520 O   0  0  0  0  0  0  0  0  0  0  0  0
    0.4325    0.7522   -3.6201 C   0  0  0  0  0  0  0  0  0  0  0  0
   -0.8505    0.2911   -4.2746 C   0  0  0  0  0  0  0  0  0  0  0  0
   -1.8508    1.3511   -4.5197 N   0  0  0  0  0  0  0  0  0  0  0  0
   -2.7257    1.8324   -3.5424 C   0  0  0  0  0  0  0  0  0  0  0  0
   -3.2737    3.0067   -3.9341 C   0  0  0  0  0  0  0  0  0  0  0  0
   -4.0101    3.8440   -3.1303 C   0  0  0  0  0  0  0  0  0  0  0  0
   -4.4185    5.1354   -3.2711 C   0  0  0  0  0  0  0  0  0  0  0  0
   -4.1367    6.0300   -4.2859 C   0  0  0  0  0  0  0  0  0  0  0  0
   -5.2040    6.5855   -5.0250 C   0  0  0  0  0  0  0  0  0  0  0  0
   -4.9546    7.4838   -6.0767 C   0  0  0  0  0  0  0  0  0  0  0  0
   -3.6365    7.8521   -6.3837 C   0  0  0  0  0  0  0  0  0  0  0  0
   -3.3177    8.9633   -7.7071 Cl  0  0  0  0  0  0  0  0  0  0  0  0
   -2.5699    7.3489   -5.6214 C   0  0  0  0  0  0  0  0  0  0  0  0
   -2.8145    6.4499   -4.5661 C   0  0  0  0  0  0  0  0  0  0  0  0
   -1.4432    5.8748   -3.6148 Cl  0  0  0  0  0  0  0  0  0  0  0  0
   -5.1192    5.5430   -2.2074 C   0  0  0  0  0  0  0  0  0  0  0  0
   -5.6594    6.5992   -1.9096 O   0  0  0  0  0  0  0  0  0  0  0  0
   -5.1582    4.5118   -1.2918 N   0  0  0  0  0  0  0  0  0  0  0  0
   -4.4708    3.4754   -1.9084 C   0  0  0  0  0  0  0  0  0  0  0  0
   -4.4186    2.4302   -1.2674 O   0  0  0  0  0  0  0  0  0  0  0  0
   -2.8274    3.1955   -5.2575 C   0  0  0  0  0  0  0  0  0  0  0  0
   -3.2992    3.9962   -6.3172 C   0  0  0  0  0  0  0  0  0  0  0  0
   -2.6457    3.9611   -7.5674 C   0  0  0  0  0  0  0  0  0  0  0  0
   -1.5844    3.0620   -7.8021 C   0  0  0  0  0  0  0  0  0  0  0  0
   -1.2217    2.1395   -6.8058 C   0  0  0  0  0  0  0  0  0  0  0  0
   -1.8771    2.2192   -5.5719 C   0  0  0  0  0  0  0  0  0  0  0  0
    0.4174    2.0029   -2.9880 N   0  0  0  0  0  0  0  0  0  0  0  0
    1.4309    2.4411   -2.0179 C   0  0  0  0  0  0  0  0  0  0  0  0
    1.3663    1.6521   -0.6900 C   0  0  0  0  0  0  0  0  0  0  0  0
    0.0185    1.7068   -0.1828 O   0  0  0  0  0  0  0  0  0  0  0  0
   -0.1954    2.3930    1.0649 C   0  0  0  0  0  0  0  0  0  0  0  0
    0.4647    1.6093    2.2296 C   0  0  0  0  0  0  0  0  0  0  0  0
   -0.1995    0.3394    2.3516 O   0  0  0  0  0  0  0  0  0  0  0  0
    0.2376   -0.5191    3.4193 C   0  0  0  0  0  0  0  0  0  0  0  0
    1.6923   -0.9660    3.1475 C   0  0  0  0  0  0  0  0  0  0  0  0
    2.0137   -2.1978    3.8878 N   0  0  0  0  0  0  0  0  0  0  0  0
    1.8426   -3.4800    3.3779 C   0  0  0  0  0  0  0  0  0  0  0  0
    0.9970   -3.7565    2.2750 C   0  0  0  0  0  0  0  0  0  0  0  0
    0.8405   -5.0753    1.7848 C   0  0  0  0  0  0  0  0  0  0  0  0
    1.5222   -6.1487    2.3933 C   0  0  0  0  0  0  0  0  0  0  0  0
    2.3465   -5.8653    3.4884 C   0  0  0  0  0  0  0  0  0  0  0  0
    2.5061   -4.5661    3.9649 C   0  0  0  0  0  0  0  0  0  0  0  0
    3.3761   -4.6204    5.0284 C   0  0  0  0  0  0  0  0  0  0  0  0
    3.8377   -3.6902    5.6807 O   0  0  0  0  0  0  0  0  0  0  0  0
    3.7802   -5.9486    5.2287 N   0  0  0  0  0  0  0  0  0  0  0  0
    4.2043   -6.4507    6.5548 C   0  0  0  0  0  0  0  0  0  0  0  0
    5.2671   -7.5677    6.4592 C   0  0  0  0  0  0  0  0  0  0  0  0
    5.6808   -8.0113    7.8793 C   0  0  0  0  0  0  0  0  0  0  0  0
    4.4859   -8.3638    8.7383 C   0  0  0  0  0  0  0  0  0  0  0  0
    4.5552   -9.1054    9.7079 O   0  0  0  0  0  0  0  0  0  0  0  0
    3.2789   -7.6802    8.5462 N   0  0  0  0  0  0  0  0  0  0  0  0
    3.0236   -6.8917    7.4146 C   0  0  0  0  0  0  0  0  0  0  0  0
    1.9023   -6.4113    7.3373 O   0  0  0  0  0  0  0  0  0  0  0  0
    3.0987   -6.7138    4.2662 C   0  0  0  0  0  0  0  0  0  0  0  0
    3.3937   -7.8763    4.0127 O   0  0  0  0  0  0  0  0  0  0  0  0
   -0.5987   -0.1827   -5.2303 H   0  0  0  0  0  0  0  0  0  0  0  0
   -1.3033   -0.4811   -3.6418 H   0  0  0  0  0  0  0  0  0  0  0  0
   -2.7612    1.3222   -2.5820 H   0  0  0  0  0  0  0  0  0  0  0  0
   -6.2278    6.3013   -4.7917 H   0  0  0  0  0  0  0  0  0  0  0  0
   -5.7803    7.8918   -6.6533 H   0  0  0  0  0  0  0  0  0  0  0  0
   -1.5521    7.6539   -5.8451 H   0  0  0  0  0  0  0  0  0  0  0  0
   -5.8628    4.3944   -0.5800 H   0  0  0  0  0  0  0  0  0  0  0  0
   -4.1803    4.6098   -6.2213 H   0  0  0  0  0  0  0  0  0  0  0  0
   -2.9823    4.6166   -8.3654 H   0  0  0  0  0  0  0  0  0  0  0  0
   -1.0930    3.0416   -8.7712 H   0  0  0  0  0  0  0  0  0  0  0  0
   -0.4729    1.3789   -6.9989 H   0  0  0  0  0  0  0  0  0  0  0  0
   -0.3969    2.5879   -3.1411 H   0  0  0  0  0  0  0  0  0  0  0  0
    1.2880    3.5114   -1.8162 H   0  0  0  0  0  0  0  0  0  0  0  0
    2.4260    2.3080   -2.4673 H   0  0  0  0  0  0  0  0  0  0  0  0
    2.0913    2.0805    0.0136 H   0  0  0  0  0  0  0  0  0  0  0  0
    1.6483    0.6070   -0.8767 H   0  0  0  0  0  0  0  0  0  0  0  0
   -1.2733    2.4726    1.2624 H   0  0  0  0  0  0  0  0  0  0  0  0
    0.2132    3.4105    1.0199 H   0  0  0  0  0  0  0  0  0  0  0  0
    0.3460    2.1865    3.1559 H   0  0  0  0  0  0  0  0  0  0  0  0
    1.5373    1.4854    2.0387 H   0  0  0  0  0  0  0  0  0  0  0  0
    0.1711   -0.0115    4.3904 H   0  0  0  0  0  0  0  0  0  0  0  0
   -0.4202   -1.3977    3.4599 H   0  0  0  0  0  0  0  0  0  0  0  0
    1.8353   -1.1304    2.0692 H   0  0  0  0  0  0  0  0  0  0  0  0
    2.3801   -0.1673    3.4550 H   0  0  0  0  0  0  0  0  0  0  0  0
    2.5760   -2.1324    4.7309 H   0  0  0  0  0  0  0  0  0  0  0  0
    0.4432   -2.9546    1.7979 H   0  0  0  0  0  0  0  0  0  0  0  0
    0.1829   -5.2633    0.9405 H   0  0  0  0  0  0  0  0  0  0  0  0
    1.4136   -7.1690    2.0334 H   0  0  0  0  0  0  0  0  0  0  0  0
    4.6706   -5.6061    7.0828 H   0  0  0  0  0  0  0  0  0  0  0  0
    6.1389   -7.2159    5.8927 H   0  0  0  0  0  0  0  0  0  0  0  0
    4.8586   -8.4351    5.9234 H   0  0  0  0  0  0  0  0  0  0  0  0
    6.3462   -8.8828    7.8177 H   0  0  0  0  0  0  0  0  0  0  0  0
    6.2489   -7.2145    8.3723 H   0  0  0  0  0  0  0  0  0  0  0  0
    2.5203   -7.8466    9.1915 H   0  0  0  0  0  0  0  0  0  0  0  0
  1  2  2  0  0  0  0
  2  3  1  0  0  0  0
  2 28  1  0  0  0  0
  3  4  1  0  0  0  0
  3 57  1  0  0  0  0
  3 58  1  0  0  0  0
  4  5  1  0  0  0  0
  4 27  1  0  0  0  0
  5  6  2  0  0  0  0
  5 59  1  0  0  0  0
  6  7  1  0  0  0  0
  6 22  1  0  0  0  0
  7  8  2  0  0  0  0
  7 20  1  0  0  0  0
  8  9  1  0  0  0  0
  8 17  1  0  0  0  0
  9 10  2  0  0  0  0
  9 15  1  0  0  0  0
 10 11  1  0  0  0  0
 10 60  1  0  0  0  0
 11 12  2  0  0  0  0
 11 61  1  0  0  0  0
 12 13  1  0  0  0  0
 12 14  1  0  0  0  0
 14 15  2  0  0  0  0
 14 62  1  0  0  0  0
 15 16  1  0  0  0  0
 17 18  2  0  0  0  0
 17 19  1  0  0  0  0
 19 20  1  0  0  0  0
 19 63  1  0  0  0  0
 20 21  2  0  0  0  0
 22 23  2  0  0  0  0
 22 27  1  0  0  0  0
 23 24  1  0  0  0  0
 23 64  1  0  0  0  0
 24 25  2  0  0  0  0
 24 65  1  0  0  0  0
 25 26  1  0  0  0  0
 25 66  1  0  0  0  0
 26 27  2  0  0  0  0
 26 67  1  0  0  0  0
 28 29  1  0  0  0  0
 28 68  1  0  0  0  0
 29 30  1  0  0  0  0
 29 69  1  0  0  0  0
 29 70  1  0  0  0  0
 30 31  1  0  0  0  0
 30 71  1  0  0  0  0
 30 72  1  0  0  0  0
 31 32  1  0  0  0  0
 32 33  1  0  0  0  0
 32 73  1  0  0  0  0
 32 74  1  0  0  0  0
 33 34  1  0  0  0  0
 33 75  1  0  0  0  0
 33 76  1  0  0  0  0
 34 35  1  0  0  0  0
 35 36  1  0  0  0  0
 35 77  1  0  0  0  0
 35 78  1  0  0  0  0
 36 37  1  0  0  0  0
 36 79  1  0  0  0  0
 36 80  1  0  0  0  0
 37 38  1  0  0  0  0
 37 81  1  0  0  0  0
 38 39  2  0  0  0  0
 38 43  1  0  0  0  0
 39 40  1  0  0  0  0
 39 82  1  0  0  0  0
 40 41  2  0  0  0  0
 40 83  1  0  0  0  0
 41 42  1  0  0  0  0
 41 84  1  0  0  0  0
 42 43  2  0  0  0  0
 42 55  1  0  0  0  0
 43 44  1  0  0  0  0
 44 45  2  0  0  0  0
 44 46  1  0  0  0  0
 46 47  1  0  0  0  0
 46 55  1  0  0  0  0
 47 48  1  0  0  0  0
 47 53  1  0  0  0  0
 47 85  1  0  0  0  0
 48 49  1  0  0  0  0
 48 86  1  0  0  0  0
 48 87  1  0  0  0  0
 49 50  1  0  0  0  0
 49 88  1  0  0  0  0
 49 89  1  0  0  0  0
 50 51  2  0  0  0  0
 50 52  1  0  0  0  0
 52 53  1  0  0  0  0
 52 90  1  0  0  0  0
 53 54  2  0  0  0  0
 55 56  2  0  0  0  0
M  END
$$$$
protac3895RUN2
  chem.cr 07102519423D
protac3895RUN2
 90 96  0  0  0  0  0  0  0  0999 V2000
    2.1293    4.4505   -2.3534 O   0  0  0  0  0  0  0  0  0  0  0  0
    1.6095    3.3574   -2.5421 C   0  0  0  0  0  0  0  0  0  0  0  0
    1.3548    2.7812   -3.9153 C   0  0  0  0  0  0  0  0  0  0  0  0
   -0.0459    2.8726   -4.3908 N   0  0  0  0  0  0  0  0  0  0  0  0
   -1.1071    3.4052   -3.6455 C   0  0  0  0  0  0  0  0  0  0  0  0
   -2.2937    3.0853   -4.2086 C   0  0  0  0  0  0  0  0  0  0  0  0
   -3.5178    3.5701   -3.8226 C   0  0  0  0  0  0  0  0  0  0  0  0
   -4.7358    3.5926   -4.4329 C   0  0  0  0  0  0  0  0  0  0  0  0
   -5.0690    3.2191   -5.7249 C   0  0  0  0  0  0  0  0  0  0  0  0
   -6.1038    2.2791   -5.9271 C   0  0  0  0  0  0  0  0  0  0  0  0
   -6.4912    1.9048   -7.2250 C   0  0  0  0  0  0  0  0  0  0  0  0
   -5.8489    2.4701   -8.3372 C   0  0  0  0  0  0  0  0  0  0  0  0
   -6.3221    1.9918   -9.9635 Cl  0  0  0  0  0  0  0  0  0  0  0  0
   -4.8448    3.4326   -8.1535 C   0  0  0  0  0  0  0  0  0  0  0  0
   -4.4615    3.8193   -6.8563 C   0  0  0  0  0  0  0  0  0  0  0  0
   -3.2486    5.0912   -6.6949 Cl  0  0  0  0  0  0  0  0  0  0  0  0
   -5.6573    4.1678   -3.6505 C   0  0  0  0  0  0  0  0  0  0  0  0
   -6.8488    4.4096   -3.7894 O   0  0  0  0  0  0  0  0  0  0  0  0
   -5.0405    4.5866   -2.4878 N   0  0  0  0  0  0  0  0  0  0  0  0
   -3.7141    4.1956   -2.6330 C   0  0  0  0  0  0  0  0  0  0  0  0
   -2.9854    4.4371   -1.6783 O   0  0  0  0  0  0  0  0  0  0  0  0
   -1.9764    2.2231   -5.2734 C   0  0  0  0  0  0  0  0  0  0  0  0
   -2.7575    1.3099   -6.0056 C   0  0  0  0  0  0  0  0  0  0  0  0
   -2.1482    0.5012   -6.9887 C   0  0  0  0  0  0  0  0  0  0  0  0
   -0.7502    0.5272   -7.1831 C   0  0  0  0  0  0  0  0  0  0  0  0
    0.0544    1.3282   -6.3537 C   0  0  0  0  0  0  0  0  0  0  0  0
   -0.5861    2.1390   -5.4072 C   0  0  0  0  0  0  0  0  0  0  0  0
    1.0406    2.6796   -1.4545 N   0  0  0  0  0  0  0  0  0  0  0  0
    0.8337    3.3274   -0.1508 C   0  0  0  0  0  0  0  0  0  0  0  0
   -0.0197    2.4471    0.7808 C   0  0  0  0  0  0  0  0  0  0  0  0
   -0.3555    3.2004    1.9587 O   0  0  0  0  0  0  0  0  0  0  0  0
    0.6682    3.4185    2.9533 C   0  0  0  0  0  0  0  0  0  0  0  0
    0.9685    2.1002    3.7045 C   0  0  0  0  0  0  0  0  0  0  0  0
   -0.2315    1.6888    4.3823 O   0  0  0  0  0  0  0  0  0  0  0  0
   -0.1537    0.4451    5.0962 C   0  0  0  0  0  0  0  0  0  0  0  0
   -0.3161   -0.7194    4.0981 C   0  0  0  0  0  0  0  0  0  0  0  0
    0.0945   -1.9770    4.7393 N   0  0  0  0  0  0  0  0  0  0  0  0
    0.3327   -3.1514    4.0376 C   0  0  0  0  0  0  0  0  0  0  0  0
   -0.3939   -3.5109    2.8793 C   0  0  0  0  0  0  0  0  0  0  0  0
   -0.1063   -4.7110    2.1825 C   0  0  0  0  0  0  0  0  0  0  0  0
    0.9232   -5.5686    2.6232 C   0  0  0  0  0  0  0  0  0  0  0  0
    1.6281   -5.2056    3.7786 C   0  0  0  0  0  0  0  0  0  0  0  0
    1.3354   -4.0308    4.4696 C   0  0  0  0  0  0  0  0  0  0  0  0
    2.2208   -3.9186    5.5147 C   0  0  0  0  0  0  0  0  0  0  0  0
    2.5152   -2.9013    6.1325 O   0  0  0  0  0  0  0  0  0  0  0  0
    3.0936   -5.0090    5.4575 N   0  0  0  0  0  0  0  0  0  0  0  0
    4.3546   -5.1230    6.2121 C   0  0  0  0  0  0  0  0  0  0  0  0
    5.5154   -4.5615    5.3586 C   0  0  0  0  0  0  0  0  0  0  0  0
    6.8632   -4.8564    6.0449 C   0  0  0  0  0  0  0  0  0  0  0  0
    7.0255   -6.3321    6.3177 C   0  0  0  0  0  0  0  0  0  0  0  0
    8.1050   -6.9025    6.3236 O   0  0  0  0  0  0  0  0  0  0  0  0
    5.9107   -7.0541    6.7591 N   0  0  0  0  0  0  0  0  0  0  0  0
    4.6033   -6.5445    6.7183 C   0  0  0  0  0  0  0  0  0  0  0  0
    3.7547   -7.2124    7.2941 O   0  0  0  0  0  0  0  0  0  0  0  0
    2.6935   -5.8276    4.3914 C   0  0  0  0  0  0  0  0  0  0  0  0
    3.4575   -6.6373    3.8785 O   0  0  0  0  0  0  0  0  0  0  0  0
    1.9843    3.3187   -4.6328 H   0  0  0  0  0  0  0  0  0  0  0  0
    1.6655    1.7295   -3.9252 H   0  0  0  0  0  0  0  0  0  0  0  0
   -0.8891    4.0850   -2.8249 H   0  0  0  0  0  0  0  0  0  0  0  0
   -6.6063    1.8396   -5.0711 H   0  0  0  0  0  0  0  0  0  0  0  0
   -7.2877    1.1805   -7.3688 H   0  0  0  0  0  0  0  0  0  0  0  0
   -4.3659    3.8861   -9.0167 H   0  0  0  0  0  0  0  0  0  0  0  0
   -5.5052    4.7783   -1.6136 H   0  0  0  0  0  0  0  0  0  0  0  0
   -3.8076    1.1704   -5.8037 H   0  0  0  0  0  0  0  0  0  0  0  0
   -2.7596   -0.1764   -7.5784 H   0  0  0  0  0  0  0  0  0  0  0  0
   -0.2967   -0.1106   -7.9372 H   0  0  0  0  0  0  0  0  0  0  0  0
    1.1370    1.3012   -6.4351 H   0  0  0  0  0  0  0  0  0  0  0  0
    0.5595    1.8075   -1.6426 H   0  0  0  0  0  0  0  0  0  0  0  0
    0.3174    4.2879   -0.3062 H   0  0  0  0  0  0  0  0  0  0  0  0
    1.8112    3.5398    0.3001 H   0  0  0  0  0  0  0  0  0  0  0  0
    0.5104    1.5199    1.0257 H   0  0  0  0  0  0  0  0  0  0  0  0
   -0.9461    2.1723    0.2573 H   0  0  0  0  0  0  0  0  0  0  0  0
    0.3226    4.1617    3.6828 H   0  0  0  0  0  0  0  0  0  0  0  0
    1.5915    3.8078    2.5059 H   0  0  0  0  0  0  0  0  0  0  0  0
    1.7622    2.2906    4.4384 H   0  0  0  0  0  0  0  0  0  0  0  0
    1.3325    1.3361    3.0102 H   0  0  0  0  0  0  0  0  0  0  0  0
    0.8020    0.3668    5.6318 H   0  0  0  0  0  0  0  0  0  0  0  0
   -0.9618    0.3874    5.8370 H   0  0  0  0  0  0  0  0  0  0  0  0
   -1.3673   -0.7684    3.7810 H   0  0  0  0  0  0  0  0  0  0  0  0
    0.3010   -0.5515    3.2083 H   0  0  0  0  0  0  0  0  0  0  0  0
    0.6275   -1.8966    5.6001 H   0  0  0  0  0  0  0  0  0  0  0  0
   -1.1905   -2.8666    2.5199 H   0  0  0  0  0  0  0  0  0  0  0  0
   -0.6785   -4.9732    1.2974 H   0  0  0  0  0  0  0  0  0  0  0  0
    1.1696   -6.4841    2.0900 H   0  0  0  0  0  0  0  0  0  0  0  0
    4.2571   -4.4970    7.1121 H   0  0  0  0  0  0  0  0  0  0  0  0
    5.3803   -3.4803    5.2110 H   0  0  0  0  0  0  0  0  0  0  0  0
    5.5019   -5.0280    4.3634 H   0  0  0  0  0  0  0  0  0  0  0  0
    7.6895   -4.5145    5.4093 H   0  0  0  0  0  0  0  0  0  0  0  0
    6.9366   -4.3067    6.9915 H   0  0  0  0  0  0  0  0  0  0  0  0
    6.0411   -8.0137    7.0414 H   0  0  0  0  0  0  0  0  0  0  0  0
  1  2  2  0  0  0  0
  2  3  1  0  0  0  0
  2 28  1  0  0  0  0
  3  4  1  0  0  0  0
  3 57  1  0  0  0  0
  3 58  1  0  0  0  0
  4  5  1  0  0  0  0
  4 27  1  0  0  0  0
  5  6  2  0  0  0  0
  5 59  1  0  0  0  0
  6  7  1  0  0  0  0
  6 22  1  0  0  0  0
  7  8  2  0  0  0  0
  7 20  1  0  0  0  0
  8  9  1  0  0  0  0
  8 17  1  0  0  0  0
  9 10  2  0  0  0  0
  9 15  1  0  0  0  0
 10 11  1  0  0  0  0
 10 60  1  0  0  0  0
 11 12  2  0  0  0  0
 11 61  1  0  0  0  0
 12 13  1  0  0  0  0
 12 14  1  0  0  0  0
 14 15  2  0  0  0  0
 14 62  1  0  0  0  0
 15 16  1  0  0  0  0
 17 18  2  0  0  0  0
 17 19  1  0  0  0  0
 19 20  1  0  0  0  0
 19 63  1  0  0  0  0
 20 21  2  0  0  0  0
 22 23  2  0  0  0  0
 22 27  1  0  0  0  0
 23 24  1  0  0  0  0
 23 64  1  0  0  0  0
 24 25  2  0  0  0  0
 24 65  1  0  0  0  0
 25 26  1  0  0  0  0
 25 66  1  0  0  0  0
 26 27  2  0  0  0  0
 26 67  1  0  0  0  0
 28 29  1  0  0  0  0
 28 68  1  0  0  0  0
 29 30  1  0  0  0  0
 29 69  1  0  0  0  0
 29 70  1  0  0  0  0
 30 31  1  0  0  0  0
 30 71  1  0  0  0  0
 30 72  1  0  0  0  0
 31 32  1  0  0  0  0
 32 33  1  0  0  0  0
 32 73  1  0  0  0  0
 32 74  1  0  0  0  0
 33 34  1  0  0  0  0
 33 75  1  0  0  0  0
 33 76  1  0  0  0  0
 34 35  1  0  0  0  0
 35 36  1  0  0  0  0
 35 77  1  0  0  0  0
 35 78  1  0  0  0  0
 36 37  1  0  0  0  0
 36 79  1  0  0  0  0
 36 80  1  0  0  0  0
 37 38  1  0  0  0  0
 37 81  1  0  0  0  0
 38 39  2  0  0  0  0
 38 43  1  0  0  0  0
 39 40  1  0  0  0  0
 39 82  1  0  0  0  0
 40 41  2  0  0  0  0
 40 83  1  0  0  0  0
 41 42  1  0  0  0  0
 41 84  1  0  0  0  0
 42 43  2  0  0  0  0
 42 55  1  0  0  0  0
 43 44  1  0  0  0  0
 44 45  2  0  0  0  0
 44 46  1  0  0  0  0
 46 47  1  0  0  0  0
 46 55  1  0  0  0  0
 47 48  1  0  0  0  0
 47 53  1  0  0  0  0
 47 85  1  0  0  0  0
 48 49  1  0  0  0  0
 48 86  1  0  0  0  0
 48 87  1  0  0  0  0
 49 50  1  0  0  0  0
 49 88  1  0  0  0  0
 49 89  1  0  0  0  0
 50 51  2  0  0  0  0
 50 52  1  0  0  0  0
 52 53  1  0  0  0  0
 52 90  1  0  0  0  0
 53 54  2  0  0  0  0
 55 56  2  0  0  0  0
M  END
$$$$
protac3895RUN2
  chem.cr 07102519423D
protac3895RUN2
 90 96  0  0  0  0  0  0  0  0999 V2000
    1.1762    5.7993   -0.7334 O   0  0  0  0  0  0  0  0  0  0  0  0
    0.3211    5.9239   -1.6005 C   0  0  0  0  0  0  0  0  0  0  0  0
    0.5369    5.5094   -3.0347 C   0  0  0  0  0  0  0  0  0  0  0  0
   -0.3181    4.3830   -3.4628 N   0  0  0  0  0  0  0  0  0  0  0  0
   -1.6741    4.5457   -3.7800 C   0  0  0  0  0  0  0  0  0  0  0  0
   -2.3244    3.3637   -3.7115 C   0  0  0  0  0  0  0  0  0  0  0  0
   -3.6118    3.1319   -4.1062 C   0  0  0  0  0  0  0  0  0  0  0  0
   -4.2650    1.9862   -4.4413 C   0  0  0  0  0  0  0  0  0  0  0  0
   -3.7247    0.7217   -4.6246 C   0  0  0  0  0  0  0  0  0  0  0  0
   -4.2756   -0.3922   -3.9475 C   0  0  0  0  0  0  0  0  0  0  0  0
   -3.7234   -1.6764   -4.1152 C   0  0  0  0  0  0  0  0  0  0  0  0
   -2.6401   -1.8652   -4.9858 C   0  0  0  0  0  0  0  0  0  0  0  0
   -1.9532   -3.4702   -5.2051 Cl  0  0  0  0  0  0  0  0  0  0  0  0
   -2.1203   -0.7799   -5.7047 C   0  0  0  0  0  0  0  0  0  0  0  0
   -2.6639    0.5036   -5.5397 C   0  0  0  0  0  0  0  0  0  0  0  0
   -2.0119    1.8003   -6.5467 Cl  0  0  0  0  0  0  0  0  0  0  0  0
   -5.5376    2.2399   -4.7687 C   0  0  0  0  0  0  0  0  0  0  0  0
   -6.4611    1.5413   -5.1635 O   0  0  0  0  0  0  0  0  0  0  0  0
   -5.7454    3.6059   -4.6844 N   0  0  0  0  0  0  0  0  0  0  0  0
   -4.5199    4.1217   -4.2760 C   0  0  0  0  0  0  0  0  0  0  0  0
   -4.4765    5.3338   -4.0956 O   0  0  0  0  0  0  0  0  0  0  0  0
   -1.3834    2.4491   -3.2132 C   0  0  0  0  0  0  0  0  0  0  0  0
   -1.5472    1.1862   -2.6120 C   0  0  0  0  0  0  0  0  0  0  0  0
   -0.4248    0.5152   -2.0849 C   0  0  0  0  0  0  0  0  0  0  0  0
    0.8397    1.1388   -2.0572 C   0  0  0  0  0  0  0  0  0  0  0  0
    0.9829    2.4555   -2.5310 C   0  0  0  0  0  0  0  0  0  0  0  0
   -0.1423    3.0774   -3.0901 C   0  0  0  0  0  0  0  0  0  0  0  0
   -0.9965    6.2314   -1.2213 N   0  0  0  0  0  0  0  0  0  0  0  0
   -1.5253    5.8023    0.0785 C   0  0  0  0  0  0  0  0  0  0  0  0
   -1.8110    4.2856    0.0684 C   0  0  0  0  0  0  0  0  0  0  0  0
   -1.8315    3.8008    1.4210 O   0  0  0  0  0  0  0  0  0  0  0  0
   -0.5569    3.6514    2.0843 C   0  0  0  0  0  0  0  0  0  0  0  0
    0.2663    2.5518    1.3783 C   0  0  0  0  0  0  0  0  0  0  0  0
    0.8891    1.7698    2.4106 O   0  0  0  0  0  0  0  0  0  0  0  0
    1.4287    0.4968    2.0243 C   0  0  0  0  0  0  0  0  0  0  0  0
    0.2580   -0.4287    1.6287 C   0  0  0  0  0  0  0  0  0  0  0  0
    0.6053   -1.8365    1.8737 N   0  0  0  0  0  0  0  0  0  0  0  0
    0.3435   -2.5116    3.0608 C   0  0  0  0  0  0  0  0  0  0  0  0
   -0.7668   -2.2274    3.8953 C   0  0  0  0  0  0  0  0  0  0  0  0
   -0.9823   -2.9468    5.0964 C   0  0  0  0  0  0  0  0  0  0  0  0
   -0.0866   -3.9595    5.4951 C   0  0  0  0  0  0  0  0  0  0  0  0
    1.0044   -4.2312    4.6650 C   0  0  0  0  0  0  0  0  0  0  0  0
    1.2089   -3.5284    3.4772 C   0  0  0  0  0  0  0  0  0  0  0  0
    2.3547   -4.0124    2.8977 C   0  0  0  0  0  0  0  0  0  0  0  0
    2.8314   -3.7402    1.8000 O   0  0  0  0  0  0  0  0  0  0  0  0
    2.8694   -5.0296    3.7027 N   0  0  0  0  0  0  0  0  0  0  0  0
    4.2741   -5.4737    3.6517 C   0  0  0  0  0  0  0  0  0  0  0  0
    4.3477   -6.9776    3.3247 C   0  0  0  0  0  0  0  0  0  0  0  0
    5.8272   -7.4153    3.2565 C   0  0  0  0  0  0  0  0  0  0  0  0
    6.6023   -7.0090    4.4922 C   0  0  0  0  0  0  0  0  0  0  0  0
    7.6360   -7.5568    4.8423 O   0  0  0  0  0  0  0  0  0  0  0  0
    6.2328   -5.8493    5.1863 N   0  0  0  0  0  0  0  0  0  0  0  0
    5.0554   -5.1366    4.9166 C   0  0  0  0  0  0  0  0  0  0  0  0
    4.9037   -4.1029    5.5562 O   0  0  0  0  0  0  0  0  0  0  0  0
    2.0269   -5.1401    4.8178 C   0  0  0  0  0  0  0  0  0  0  0  0
    2.0778   -6.0967    5.5843 O   0  0  0  0  0  0  0  0  0  0  0  0
    0.3806    6.3686   -3.6961 H   0  0  0  0  0  0  0  0  0  0  0  0
    1.5838    5.2033   -3.1450 H   0  0  0  0  0  0  0  0  0  0  0  0
   -2.0195    5.5077   -4.1498 H   0  0  0  0  0  0  0  0  0  0  0  0
   -5.1216   -0.2585   -3.2785 H   0  0  0  0  0  0  0  0  0  0  0  0
   -4.1374   -2.5255   -3.5771 H   0  0  0  0  0  0  0  0  0  0  0  0
   -1.3019   -0.9326   -6.4021 H   0  0  0  0  0  0  0  0  0  0  0  0
   -6.6386    4.0519   -4.5414 H   0  0  0  0  0  0  0  0  0  0  0  0
   -2.5204    0.7362   -2.5000 H   0  0  0  0  0  0  0  0  0  0  0  0
   -0.5462   -0.4829   -1.6743 H   0  0  0  0  0  0  0  0  0  0  0  0
    1.6928    0.6197   -1.6295 H   0  0  0  0  0  0  0  0  0  0  0  0
    1.9318    2.9759   -2.4457 H   0  0  0  0  0  0  0  0  0  0  0  0
   -1.6660    6.4149   -1.9569 H   0  0  0  0  0  0  0  0  0  0  0  0
   -2.4514    6.3465    0.3067 H   0  0  0  0  0  0  0  0  0  0  0  0
   -0.7937    6.0563    0.8557 H   0  0  0  0  0  0  0  0  0  0  0  0
   -1.0495    3.7608   -0.5223 H   0  0  0  0  0  0  0  0  0  0  0  0
   -2.7750    4.0976   -0.4206 H   0  0  0  0  0  0  0  0  0  0  0  0
   -0.7314    3.3535    3.1260 H   0  0  0  0  0  0  0  0  0  0  0  0
    0.0137    4.5876    2.1035 H   0  0  0  0  0  0  0  0  0  0  0  0
    1.0156    3.0072    0.7153 H   0  0  0  0  0  0  0  0  0  0  0  0
   -0.4088    1.9404    0.7668 H   0  0  0  0  0  0  0  0  0  0  0  0
    2.1390    0.5969    1.1936 H   0  0  0  0  0  0  0  0  0  0  0  0
    1.9590    0.0599    2.8812 H   0  0  0  0  0  0  0  0  0  0  0  0
   -0.6335   -0.1370    2.1947 H   0  0  0  0  0  0  0  0  0  0  0  0
    0.0318   -0.2841    0.5668 H   0  0  0  0  0  0  0  0  0  0  0  0
    1.3716   -2.2280    1.3348 H   0  0  0  0  0  0  0  0  0  0  0  0
   -1.4807   -1.4605    3.6165 H   0  0  0  0  0  0  0  0  0  0  0  0
   -1.8436   -2.7133    5.7186 H   0  0  0  0  0  0  0  0  0  0  0  0
   -0.2294   -4.5123    6.4200 H   0  0  0  0  0  0  0  0  0  0  0  0
    4.7673   -4.9250    2.8380 H   0  0  0  0  0  0  0  0  0  0  0  0
    3.8354   -7.1820    2.3742 H   0  0  0  0  0  0  0  0  0  0  0  0
    3.8241   -7.5475    4.1064 H   0  0  0  0  0  0  0  0  0  0  0  0
    5.8896   -8.5047    3.1359 H   0  0  0  0  0  0  0  0  0  0  0  0
    6.3096   -6.9735    2.3746 H   0  0  0  0  0  0  0  0  0  0  0  0
    6.8053   -5.5489    5.9620 H   0  0  0  0  0  0  0  0  0  0  0  0
  1  2  2  0  0  0  0
  2  3  1  0  0  0  0
  2 28  1  0  0  0  0
  3  4  1  0  0  0  0
  3 57  1  0  0  0  0
  3 58  1  0  0  0  0
  4  5  1  0  0  0  0
  4 27  1  0  0  0  0
  5  6  2  0  0  0  0
  5 59  1  0  0  0  0
  6  7  1  0  0  0  0
  6 22  1  0  0  0  0
  7  8  2  0  0  0  0
  7 20  1  0  0  0  0
  8  9  1  0  0  0  0
  8 17  1  0  0  0  0
  9 10  2  0  0  0  0
  9 15  1  0  0  0  0
 10 11  1  0  0  0  0
 10 60  1  0  0  0  0
 11 12  2  0  0  0  0
 11 61  1  0  0  0  0
 12 13  1  0  0  0  0
 12 14  1  0  0  0  0
 14 15  2  0  0  0  0
 14 62  1  0  0  0  0
 15 16  1  0  0  0  0
 17 18  2  0  0  0  0
 17 19  1  0  0  0  0
 19 20  1  0  0  0  0
 19 63  1  0  0  0  0
 20 21  2  0  0  0  0
 22 23  2  0  0  0  0
 22 27  1  0  0  0  0
 23 24  1  0  0  0  0
 23 64  1  0  0  0  0
 24 25  2  0  0  0  0
 24 65  1  0  0  0  0
 25 26  1  0  0  0  0
 25 66  1  0  0  0  0
 26 27  2  0  0  0  0
 26 67  1  0  0  0  0
 28 29  1  0  0  0  0
 28 68  1  0  0  0  0
 29 30  1  0  0  0  0
 29 69  1  0  0  0  0
 29 70  1  0  0  0  0
 30 31  1  0  0  0  0
 30 71  1  0  0  0  0
 30 72  1  0  0  0  0
 31 32  1  0  0  0  0
 32 33  1  0  0  0  0
 32 73  1  0  0  0  0
 32 74  1  0  0  0  0
 33 34  1  0  0  0  0
 33 75  1  0  0  0  0
 33 76  1  0  0  0  0
 34 35  1  0  0  0  0
 35 36  1  0  0  0  0
 35 77  1  0  0  0  0
 35 78  1  0  0  0  0
 36 37  1  0  0  0  0
 36 79  1  0  0  0  0
 36 80  1  0  0  0  0
 37 38  1  0  0  0  0
 37 81  1  0  0  0  0
 38 39  2  0  0  0  0
 38 43  1  0  0  0  0
 39 40  1  0  0  0  0
 39 82  1  0  0  0  0
 40 41  2  0  0  0  0
 40 83  1  0  0  0  0
 41 42  1  0  0  0  0
 41 84  1  0  0  0  0
 42 43  2  0  0  0  0
 42 55  1  0  0  0  0
 43 44  1  0  0  0  0
 44 45  2  0  0  0  0
 44 46  1  0  0  0  0
 46 47  1  0  0  0  0
 46 55  1  0  0  0  0
 47 48  1  0  0  0  0
 47 53  1  0  0  0  0
 47 85  1  0  0  0  0
 48 49  1  0  0  0  0
 48 86  1  0  0  0  0
 48 87  1  0  0  0  0
 49 50  1  0  0  0  0
 49 88  1  0  0  0  0
 49 89  1  0  0  0  0
 50 51  2  0  0  0  0
 50 52  1  0  0  0  0
 52 53  1  0  0  0  0
 52 90  1  0  0  0  0
 53 54  2  0  0  0  0
 55 56  2  0  0  0  0
M  END
$$$$
protac3895RUN2
  chem.cr 07102519423D
protac3895RUN2
 90 96  0  0  0  0  0  0  0  0999 V2000
    1.9816    6.6522   -1.5930 O   0  0  0  0  0  0  0  0  0  0  0  0
    1.9750    5.4297   -1.5720 C   0  0  0  0  0  0  0  0  0  0  0  0
    2.6551    4.5824   -2.6322 C   0  0  0  0  0  0  0  0  0  0  0  0
    2.0225    3.2658   -2.8609 N   0  0  0  0  0  0  0  0  0  0  0  0
    0.6603    3.2494   -3.2201 C   0  0  0  0  0  0  0  0  0  0  0  0
    0.0332    2.1919   -2.6706 C   0  0  0  0  0  0  0  0  0  0  0  0
   -1.2631    1.8137   -2.8387 C   0  0  0  0  0  0  0  0  0  0  0  0
   -1.8643    0.6133   -2.6546 C   0  0  0  0  0  0  0  0  0  0  0  0
   -1.2522   -0.6204   -2.4502 C   0  0  0  0  0  0  0  0  0  0  0  0
   -1.6715   -1.4592   -1.3940 C   0  0  0  0  0  0  0  0  0  0  0  0
   -1.1425   -2.7554   -1.2476 C   0  0  0  0  0  0  0  0  0  0  0  0
   -0.1863   -3.2311   -2.1538 C   0  0  0  0  0  0  0  0  0  0  0  0
    0.4611   -4.8560   -1.9908 Cl  0  0  0  0  0  0  0  0  0  0  0  0
    0.2166   -2.4265   -3.2242 C   0  0  0  0  0  0  0  0  0  0  0  0
   -0.3169   -1.1375   -3.3845 C   0  0  0  0  0  0  0  0  0  0  0  0
    0.1455   -0.2483   -4.8351 Cl  0  0  0  0  0  0  0  0  0  0  0  0
   -3.1713    0.6971   -2.9243 C   0  0  0  0  0  0  0  0  0  0  0  0
   -4.0814   -0.1226   -2.9450 O   0  0  0  0  0  0  0  0  0  0  0  0
   -3.4534    1.9914   -3.3334 N   0  0  0  0  0  0  0  0  0  0  0  0
   -2.2281    2.6484   -3.2801 C   0  0  0  0  0  0  0  0  0  0  0  0
   -2.2307    3.8384   -3.5708 O   0  0  0  0  0  0  0  0  0  0  0  0
    0.9721    1.5827   -1.8422 C   0  0  0  0  0  0  0  0  0  0  0  0
    0.7553    0.8022   -0.6941 C   0  0  0  0  0  0  0  0  0  0  0  0
    1.8298    0.5534    0.1789 C   0  0  0  0  0  0  0  0  0  0  0  0
    3.1029    1.1084   -0.0606 C   0  0  0  0  0  0  0  0  0  0  0  0
    3.2972    1.9750   -1.1490 C   0  0  0  0  0  0  0  0  0  0  0  0
    2.2081    2.2172   -1.9950 C   0  0  0  0  0  0  0  0  0  0  0  0
    1.2047    4.7685   -0.5990 N   0  0  0  0  0  0  0  0  0  0  0  0
   -0.1279    5.2550   -0.2126 C   0  0  0  0  0  0  0  0  0  0  0  0
   -0.5043    4.8782    1.2295 C   0  0  0  0  0  0  0  0  0  0  0  0
   -0.8564    3.4881    1.2638 O   0  0  0  0  0  0  0  0  0  0  0  0
   -1.2612    3.0157    2.5587 C   0  0  0  0  0  0  0  0  0  0  0  0
   -1.7990    1.5736    2.4306 C   0  0  0  0  0  0  0  0  0  0  0  0
   -3.1259    1.6345    1.8673 O   0  0  0  0  0  0  0  0  0  0  0  0
   -4.1195    0.7516    2.4297 C   0  0  0  0  0  0  0  0  0  0  0  0
   -3.9892   -0.6808    1.8630 C   0  0  0  0  0  0  0  0  0  0  0  0
   -2.7403   -1.3370    2.2812 N   0  0  0  0  0  0  0  0  0  0  0  0
   -2.4356   -2.6833    2.1117 C   0  0  0  0  0  0  0  0  0  0  0  0
   -3.4139   -3.6752    1.8556 C   0  0  0  0  0  0  0  0  0  0  0  0
   -3.0457   -5.0306    1.6642 C   0  0  0  0  0  0  0  0  0  0  0  0
   -1.6929   -5.4195    1.7102 C   0  0  0  0  0  0  0  0  0  0  0  0
   -0.7360   -4.4343    1.9675 C   0  0  0  0  0  0  0  0  0  0  0  0
   -1.1003   -3.1038    2.1729 C   0  0  0  0  0  0  0  0  0  0  0  0
    0.0538   -2.3806    2.3421 C   0  0  0  0  0  0  0  0  0  0  0  0
    0.1720   -1.2031    2.6646 O   0  0  0  0  0  0  0  0  0  0  0  0
    1.1473   -3.2358    2.1874 N   0  0  0  0  0  0  0  0  0  0  0  0
    2.4962   -2.7883    1.7840 C   0  0  0  0  0  0  0  0  0  0  0  0
    2.6599   -2.8742    0.2470 C   0  0  0  0  0  0  0  0  0  0  0  0
    4.0805   -2.4335   -0.1654 C   0  0  0  0  0  0  0  0  0  0  0  0
    5.1503   -3.1615    0.6150 C   0  0  0  0  0  0  0  0  0  0  0  0
    6.3149   -3.2164    0.2462 O   0  0  0  0  0  0  0  0  0  0  0  0
    4.9010   -3.4928    1.9525 N   0  0  0  0  0  0  0  0  0  0  0  0
    3.6118   -3.5316    2.5065 C   0  0  0  0  0  0  0  0  0  0  0  0
    3.5575   -3.8436    3.6871 O   0  0  0  0  0  0  0  0  0  0  0  0
    0.6353   -4.5308    2.0078 C   0  0  0  0  0  0  0  0  0  0  0  0
    1.3208   -5.4561    1.5885 O   0  0  0  0  0  0  0  0  0  0  0  0
    2.6523    5.1411   -3.5760 H   0  0  0  0  0  0  0  0  0  0  0  0
    3.7029    4.4410   -2.3496 H   0  0  0  0  0  0  0  0  0  0  0  0
    0.2803    3.9988   -3.9140 H   0  0  0  0  0  0  0  0  0  0  0  0
   -2.4207   -1.1054   -0.6944 H   0  0  0  0  0  0  0  0  0  0  0  0
   -1.4895   -3.4010   -0.4483 H   0  0  0  0  0  0  0  0  0  0  0  0
    0.9274   -2.8106   -3.9484 H   0  0  0  0  0  0  0  0  0  0  0  0
   -4.3460    2.4473   -3.2312 H   0  0  0  0  0  0  0  0  0  0  0  0
   -0.2415    0.4860   -0.4119 H   0  0  0  0  0  0  0  0  0  0  0  0
    1.6587   -0.0182    1.0794 H   0  0  0  0  0  0  0  0  0  0  0  0
    3.9131    0.9315    0.6434 H   0  0  0  0  0  0  0  0  0  0  0  0
    4.2392    2.4981   -1.2752 H   0  0  0  0  0  0  0  0  0  0  0  0
    1.3569    3.7672   -0.5149 H   0  0  0  0  0  0  0  0  0  0  0  0
   -0.8718    4.8314   -0.9013 H   0  0  0  0  0  0  0  0  0  0  0  0
   -0.1577    6.3482   -0.3162 H   0  0  0  0  0  0  0  0  0  0  0  0
   -1.3631    5.4893    1.5356 H   0  0  0  0  0  0  0  0  0  0  0  0
    0.3334    5.0964    1.9040 H   0  0  0  0  0  0  0  0  0  0  0  0
   -2.0492    3.6544    2.9821 H   0  0  0  0  0  0  0  0  0  0  0  0
   -0.4048    3.0250    3.2473 H   0  0  0  0  0  0  0  0  0  0  0  0
   -1.8151    1.1254    3.4345 H   0  0  0  0  0  0  0  0  0  0  0  0
   -1.1217    0.9854    1.7981 H   0  0  0  0  0  0  0  0  0  0  0  0
   -4.0613    0.7336    3.5260 H   0  0  0  0  0  0  0  0  0  0  0  0
   -5.1162    1.1269    2.1644 H   0  0  0  0  0  0  0  0  0  0  0  0
   -4.8495   -1.2610    2.2203 H   0  0  0  0  0  0  0  0  0  0  0  0
   -4.0446   -0.6330    0.7676 H   0  0  0  0  0  0  0  0  0  0  0  0
   -1.9624   -0.7383    2.5372 H   0  0  0  0  0  0  0  0  0  0  0  0
   -4.4648   -3.4091    1.8087 H   0  0  0  0  0  0  0  0  0  0  0  0
   -3.8122   -5.7764    1.4699 H   0  0  0  0  0  0  0  0  0  0  0  0
   -1.3946   -6.4507    1.5438 H   0  0  0  0  0  0  0  0  0  0  0  0
    2.6006   -1.7403    2.0870 H   0  0  0  0  0  0  0  0  0  0  0  0
    1.8959   -2.2671   -0.2577 H   0  0  0  0  0  0  0  0  0  0  0  0
    2.5123   -3.9102   -0.0795 H   0  0  0  0  0  0  0  0  0  0  0  0
    4.2275   -2.6071   -1.2398 H   0  0  0  0  0  0  0  0  0  0  0  0
    4.2080   -1.3573   -0.0133 H   0  0  0  0  0  0  0  0  0  0  0  0
    5.6647   -3.8531    2.5064 H   0  0  0  0  0  0  0  0  0  0  0  0
  1  2  2  0  0  0  0
  2  3  1  0  0  0  0
  2 28  1  0  0  0  0
  3  4  1  0  0  0  0
  3 57  1  0  0  0  0
  3 58  1  0  0  0  0
  4  5  1  0  0  0  0
  4 27  1  0  0  0  0
  5  6  2  0  0  0  0
  5 59  1  0  0  0  0
  6  7  1  0  0  0  0
  6 22  1  0  0  0  0
  7  8  2  0  0  0  0
  7 20  1  0  0  0  0
  8  9  1  0  0  0  0
  8 17  1  0  0  0  0
  9 10  2  0  0  0  0
  9 15  1  0  0  0  0
 10 11  1  0  0  0  0
 10 60  1  0  0  0  0
 11 12  2  0  0  0  0
 11 61  1  0  0  0  0
 12 13  1  0  0  0  0
 12 14  1  0  0  0  0
 14 15  2  0  0  0  0
 14 62  1  0  0  0  0
 15 16  1  0  0  0  0
 17 18  2  0  0  0  0
 17 19  1  0  0  0  0
 19 20  1  0  0  0  0
 19 63  1  0  0  0  0
 20 21  2  0  0  0  0
 22 23  2  0  0  0  0
 22 27  1  0  0  0  0
 23 24  1  0  0  0  0
 23 64  1  0  0  0  0
 24 25  2  0  0  0  0
 24 65  1  0  0  0  0
 25 26  1  0  0  0  0
 25 66  1  0  0  0  0
 26 27  2  0  0  0  0
 26 67  1  0  0  0  0
 28 29  1  0  0  0  0
 28 68  1  0  0  0  0
 29 30  1  0  0  0  0
 29 69  1  0  0  0  0
 29 70  1  0  0  0  0
 30 31  1  0  0  0  0
 30 71  1  0  0  0  0
 30 72  1  0  0  0  0
 31 32  1  0  0  0  0
 32 33  1  0  0  0  0
 32 73  1  0  0  0  0
 32 74  1  0  0  0  0
 33 34  1  0  0  0  0
 33 75  1  0  0  0  0
 33 76  1  0  0  0  0
 34 35  1  0  0  0  0
 35 36  1  0  0  0  0
 35 77  1  0  0  0  0
 35 78  1  0  0  0  0
 36 37  1  0  0  0  0
 36 79  1  0  0  0  0
 36 80  1  0  0  0  0
 37 38  1  0  0  0  0
 37 81  1  0  0  0  0
 38 39  2  0  0  0  0
 38 43  1  0  0  0  0
 39 40  1  0  0  0  0
 39 82  1  0  0  0  0
 40 41  2  0  0  0  0
 40 83  1  0  0  0  0
 41 42  1  0  0  0  0
 41 84  1  0  0  0  0
 42 43  2  0  0  0  0
 42 55  1  0  0  0  0
 43 44  1  0  0  0  0
 44 45  2  0  0  0  0
 44 46  1  0  0  0  0
 46 47  1  0  0  0  0
 46 55  1  0  0  0  0
 47 48  1  0  0  0  0
 47 53  1  0  0  0  0
 47 85  1  0  0  0  0
 48 49  1  0  0  0  0
 48 86  1  0  0  0  0
 48 87  1  0  0  0  0
 49 50  1  0  0  0  0
 49 88  1  0  0  0  0
 49 89  1  0  0  0  0
 50 51  2  0  0  0  0
 50 52  1  0  0  0  0
 52 53  1  0  0  0  0
 52 90  1  0  0  0  0
 53 54  2  0  0  0  0
 55 56  2  0  0  0  0
M  END
$$$$
protac3895RUN2
  chem.cr 07102519423D
protac3895RUN2
 90 96  0  0  0  0  0  0  0  0999 V2000
    0.4253    7.4013   -1.3647 O   0  0  0  0  0  0  0  0  0  0  0  0
    0.5966    6.2906   -0.8852 C   0  0  0  0  0  0  0  0  0  0  0  0
    1.6507    5.3254   -1.3768 C   0  0  0  0  0  0  0  0  0  0  0  0
    1.1877    3.9287   -1.5088 N   0  0  0  0  0  0  0  0  0  0  0  0
   -0.0348    3.5524   -2.0657 C   0  0  0  0  0  0  0  0  0  0  0  0
   -0.1080    2.2091   -2.2098 C   0  0  0  0  0  0  0  0  0  0  0  0
   -1.1170    1.5406   -2.8668 C   0  0  0  0  0  0  0  0  0  0  0  0
   -1.2461    0.2621   -3.3222 C   0  0  0  0  0  0  0  0  0  0  0  0
   -0.3288   -0.7725   -3.3141 C   0  0  0  0  0  0  0  0  0  0  0  0
   -0.6309   -1.9483   -2.5934 C   0  0  0  0  0  0  0  0  0  0  0  0
    0.2561   -3.0380   -2.5933 C   0  0  0  0  0  0  0  0  0  0  0  0
    1.4413   -2.9737   -3.3424 C   0  0  0  0  0  0  0  0  0  0  0  0
    2.5431   -4.3471   -3.3816 Cl  0  0  0  0  0  0  0  0  0  0  0  0
    1.7432   -1.8178   -4.0809 C   0  0  0  0  0  0  0  0  0  0  0  0
    0.8606   -0.7219   -4.0760 C   0  0  0  0  0  0  0  0  0  0  0  0
    1.2576    0.6959   -5.0487 Cl  0  0  0  0  0  0  0  0  0  0  0  0
   -2.4295    0.0784   -3.9250 C   0  0  0  0  0  0  0  0  0  0  0  0
   -2.9559   -0.8772   -4.4796 O   0  0  0  0  0  0  0  0  0  0  0  0
   -3.1187    1.2726   -3.9031 N   0  0  0  0  0  0  0  0  0  0  0  0
   -2.2784    2.1450   -3.2264 C   0  0  0  0  0  0  0  0  0  0  0  0
   -2.7322    3.2704   -3.0502 O   0  0  0  0  0  0  0  0  0  0  0  0
    1.0836    1.7150   -1.6374 C   0  0  0  0  0  0  0  0  0  0  0  0
    1.4722    0.4333   -1.2007 C   0  0  0  0  0  0  0  0  0  0  0  0
    2.7348    0.2435   -0.6045 C   0  0  0  0  0  0  0  0  0  0  0  0
    3.5998    1.3342   -0.3800 C   0  0  0  0  0  0  0  0  0  0  0  0
    3.1684    2.6383   -0.6795 C   0  0  0  0  0  0  0  0  0  0  0  0
    1.9066    2.7918   -1.2720 C   0  0  0  0  0  0  0  0  0  0  0  0
   -0.0921    5.9335    0.2806 N   0  0  0  0  0  0  0  0  0  0  0  0
   -0.9638    6.8418    1.0422 C   0  0  0  0  0  0  0  0  0  0  0  0
   -2.1860    6.1443    1.6937 C   0  0  0  0  0  0  0  0  0  0  0  0
   -1.8558    4.7837    2.0130 O   0  0  0  0  0  0  0  0  0  0  0  0
   -2.2385    3.8136    1.0239 C   0  0  0  0  0  0  0  0  0  0  0  0
   -1.3909    2.5455    1.2552 C   0  0  0  0  0  0  0  0  0  0  0  0
   -2.2477    1.3991    1.2892 O   0  0  0  0  0  0  0  0  0  0  0  0
   -2.9951    1.1998    2.4994 C   0  0  0  0  0  0  0  0  0  0  0  0
   -3.5261   -0.2444    2.4549 C   0  0  0  0  0  0  0  0  0  0  0  0
   -2.3989   -1.1467    2.1870 N   0  0  0  0  0  0  0  0  0  0  0  0
   -2.4213   -2.5333    2.2013 C   0  0  0  0  0  0  0  0  0  0  0  0
   -3.5741   -3.2862    2.5246 C   0  0  0  0  0  0  0  0  0  0  0  0
   -3.5373   -4.7033    2.5392 C   0  0  0  0  0  0  0  0  0  0  0  0
   -2.3422   -5.3921    2.2437 C   0  0  0  0  0  0  0  0  0  0  0  0
   -1.2078   -4.6337    1.9318 C   0  0  0  0  0  0  0  0  0  0  0  0
   -1.2524   -3.2425    1.8967 C   0  0  0  0  0  0  0  0  0  0  0  0
    0.0042   -2.7874    1.5654 C   0  0  0  0  0  0  0  0  0  0  0  0
    0.3349   -1.6650    1.2076 O   0  0  0  0  0  0  0  0  0  0  0  0
    0.8463   -3.8893    1.3776 N   0  0  0  0  0  0  0  0  0  0  0  0
    2.3093   -3.8191    1.5410 C   0  0  0  0  0  0  0  0  0  0  0  0
    3.0154   -4.4251    0.3079 C   0  0  0  0  0  0  0  0  0  0  0  0
    4.5332   -4.5467    0.5589 C   0  0  0  0  0  0  0  0  0  0  0  0
    4.8186   -5.3190    1.8217 C   0  0  0  0  0  0  0  0  0  0  0  0
    5.8392   -5.9652    2.0004 O   0  0  0  0  0  0  0  0  0  0  0  0
    3.9915   -5.1170    2.9318 N   0  0  0  0  0  0  0  0  0  0  0  0
    2.7654   -4.4360    2.8631 C   0  0  0  0  0  0  0  0  0  0  0  0
    2.2224   -4.2020    3.9357 O   0  0  0  0  0  0  0  0  0  0  0  0
    0.0743   -5.0309    1.6291 C   0  0  0  0  0  0  0  0  0  0  0  0
    0.4973   -6.1676    1.4540 O   0  0  0  0  0  0  0  0  0  0  0  0
    2.0104    5.6620   -2.3546 H   0  0  0  0  0  0  0  0  0  0  0  0
    2.4922    5.3647   -0.6813 H   0  0  0  0  0  0  0  0  0  0  0  0
   -0.7076    4.3344   -2.4046 H   0  0  0  0  0  0  0  0  0  0  0  0
   -1.5499   -2.0030   -2.0169 H   0  0  0  0  0  0  0  0  0  0  0  0
    0.0171   -3.9320   -2.0225 H   0  0  0  0  0  0  0  0  0  0  0  0
    2.6569   -1.7765   -4.6683 H   0  0  0  0  0  0  0  0  0  0  0  0
   -4.1133    1.3784   -4.0190 H   0  0  0  0  0  0  0  0  0  0  0  0
    0.8115   -0.4117   -1.2496 H   0  0  0  0  0  0  0  0  0  0  0  0
    3.0316   -0.7533   -0.2901 H   0  0  0  0  0  0  0  0  0  0  0  0
    4.5731    1.1736    0.0754 H   0  0  0  0  0  0  0  0  0  0  0  0
    3.7920    3.4954   -0.4398 H   0  0  0  0  0  0  0  0  0  0  0  0
    0.0036    4.9827    0.6240 H   0  0  0  0  0  0  0  0  0  0  0  0
   -1.3294    7.6427    0.3852 H   0  0  0  0  0  0  0  0  0  0  0  0
   -0.3594    7.3120    1.8289 H   0  0  0  0  0  0  0  0  0  0  0  0
   -3.0438    6.1857    1.0090 H   0  0  0  0  0  0  0  0  0  0  0  0
   -2.4678    6.6932    2.6025 H   0  0  0  0  0  0  0  0  0  0  0  0
   -2.0542    4.1768    0.0055 H   0  0  0  0  0  0  0  0  0  0  0  0
   -3.3098    3.5913    1.1070 H   0  0  0  0  0  0  0  0  0  0  0  0
   -0.8201    2.6343    2.1876 H   0  0  0  0  0  0  0  0  0  0  0  0
   -0.6696    2.4498    0.4366 H   0  0  0  0  0  0  0  0  0  0  0  0
   -2.3485    1.3249    3.3815 H   0  0  0  0  0  0  0  0  0  0  0  0
   -3.8294    1.9080    2.5810 H   0  0  0  0  0  0  0  0  0  0  0  0
   -4.0014   -0.4917    3.4127 H   0  0  0  0  0  0  0  0  0  0  0  0
   -4.2729   -0.3326    1.6574 H   0  0  0  0  0  0  0  0  0  0  0  0
   -1.5335   -0.7192    1.8696 H   0  0  0  0  0  0  0  0  0  0  0  0
   -4.5007   -2.7807    2.7715 H   0  0  0  0  0  0  0  0  0  0  0  0
   -4.4333   -5.2635    2.7877 H   0  0  0  0  0  0  0  0  0  0  0  0
   -2.2924   -6.4790    2.2607 H   0  0  0  0  0  0  0  0  0  0  0  0
    2.5866   -2.7583    1.5945 H   0  0  0  0  0  0  0  0  0  0  0  0
    2.8080   -3.8057   -0.5760 H   0  0  0  0  0  0  0  0  0  0  0  0
    2.6125   -5.4256    0.0996 H   0  0  0  0  0  0  0  0  0  0  0  0
    5.0091   -5.0517   -0.2901 H   0  0  0  0  0  0  0  0  0  0  0  0
    4.9923   -3.5526    0.6353 H   0  0  0  0  0  0  0  0  0  0  0  0
    4.2725   -5.5137    3.8176 H   0  0  0  0  0  0  0  0  0  0  0  0
  1  2  2  0  0  0  0
  2  3  1  0  0  0  0
  2 28  1  0  0  0  0
  3  4  1  0  0  0  0
  3 57  1  0  0  0  0
  3 58  1  0  0  0  0
  4  5  1  0  0  0  0
  4 27  1  0  0  0  0
  5  6  2  0  0  0  0
  5 59  1  0  0  0  0
  6  7  1  0  0  0  0
  6 22  1  0  0  0  0
  7  8  2  0  0  0  0
  7 20  1  0  0  0  0
  8  9  1  0  0  0  0
  8 17  1  0  0  0  0
  9 10  2  0  0  0  0
  9 15  1  0  0  0  0
 10 11  1  0  0  0  0
 10 60  1  0  0  0  0
 11 12  2  0  0  0  0
 11 61  1  0  0  0  0
 12 13  1  0  0  0  0
 12 14  1  0  0  0  0
 14 15  2  0  0  0  0
 14 62  1  0  0  0  0
 15 16  1  0  0  0  0
 17 18  2  0  0  0  0
 17 19  1  0  0  0  0
 19 20  1  0  0  0  0
 19 63  1  0  0  0  0
 20 21  2  0  0  0  0
 22 23  2  0  0  0  0
 22 27  1  0  0  0  0
 23 24  1  0  0  0  0
 23 64  1  0  0  0  0
 24 25  2  0  0  0  0
 24 65  1  0  0  0  0
 25 26  1  0  0  0  0
 25 66  1  0  0  0  0
 26 27  2  0  0  0  0
 26 67  1  0  0  0  0
 28 29  1  0  0  0  0
 28 68  1  0  0  0  0
 29 30  1  0  0  0  0
 29 69  1  0  0  0  0
 29 70  1  0  0  0  0
 30 31  1  0  0  0  0
 30 71  1  0  0  0  0
 30 72  1  0  0  0  0
 31 32  1  0  0  0  0
 32 33  1  0  0  0  0
 32 73  1  0  0  0  0
 32 74  1  0  0  0  0
 33 34  1  0  0  0  0
 33 75  1  0  0  0  0
 33 76  1  0  0  0  0
 34 35  1  0  0  0  0
 35 36  1  0  0  0  0
 35 77  1  0  0  0  0
 35 78  1  0  0  0  0
 36 37  1  0  0  0  0
 36 79  1  0  0  0  0
 36 80  1  0  0  0  0
 37 38  1  0  0  0  0
 37 81  1  0  0  0  0
 38 39  2  0  0  0  0
 38 43  1  0  0  0  0
 39 40  1  0  0  0  0
 39 82  1  0  0  0  0
 40 41  2  0  0  0  0
 40 83  1  0  0  0  0
 41 42  1  0  0  0  0
 41 84  1  0  0  0  0
 42 43  2  0  0  0  0
 42 55  1  0  0  0  0
 43 44  1  0  0  0  0
 44 45  2  0  0  0  0
 44 46  1  0  0  0  0
 46 47  1  0  0  0  0
 46 55  1  0  0  0  0
 47 48  1  0  0  0  0
 47 53  1  0  0  0  0
 47 85  1  0  0  0  0
 48 49  1  0  0  0  0
 48 86  1  0  0  0  0
 48 87  1  0  0  0  0
 49 50  1  0  0  0  0
 49 88  1  0  0  0  0
 49 89  1  0  0  0  0
 50 51  2  0  0  0  0
 50 52  1  0  0  0  0
 52 53  1  0  0  0  0
 52 90  1  0  0  0  0
 53 54  2  0  0  0  0
 55 56  2  0  0  0  0
M  END
$$$$
protac3895RUN2
  chem.cr 07102519423D
protac3895RUN2
 90 96  0  0  0  0  0  0  0  0999 V2000
   -0.0364    1.6939    5.2310 O   0  0  0  0  0  0  0  0  0  0  0  0
    0.0392    1.8946    4.0291 C   0  0  0  0  0  0  0  0  0  0  0  0
   -0.2222    3.2697    3.4489 C   0  0  0  0  0  0  0  0  0  0  0  0
   -1.0417    3.3014    2.2222 N   0  0  0  0  0  0  0  0  0  0  0  0
   -2.1157    2.4195    2.0227 C   0  0  0  0  0  0  0  0  0  0  0  0
   -2.2537    2.1377    0.7090 C   0  0  0  0  0  0  0  0  0  0  0  0
   -3.0641    1.1795    0.1629 C   0  0  0  0  0  0  0  0  0  0  0  0
   -3.0373    0.5682   -1.0500 C   0  0  0  0  0  0  0  0  0  0  0  0
   -2.0384    0.6563   -2.0064 C   0  0  0  0  0  0  0  0  0  0  0  0
   -0.7044    0.4105   -1.6168 C   0  0  0  0  0  0  0  0  0  0  0  0
    0.3447    0.5225   -2.5416 C   0  0  0  0  0  0  0  0  0  0  0  0
    0.0698    0.8408   -3.8778 C   0  0  0  0  0  0  0  0  0  0  0  0
    1.3851    0.9571   -5.0364 Cl  0  0  0  0  0  0  0  0  0  0  0  0
   -1.2553    1.0557   -4.2906 C   0  0  0  0  0  0  0  0  0  0  0  0
   -2.3082    0.9666   -3.3636 C   0  0  0  0  0  0  0  0  0  0  0  0
   -3.9393    1.3425   -3.9225 Cl  0  0  0  0  0  0  0  0  0  0  0  0
   -4.0045   -0.3523   -1.1465 C   0  0  0  0  0  0  0  0  0  0  0  0
   -4.2850   -1.1947   -1.9885 O   0  0  0  0  0  0  0  0  0  0  0  0
   -4.7425   -0.3289    0.0232 N   0  0  0  0  0  0  0  0  0  0  0  0
   -4.0818    0.5888    0.8339 C   0  0  0  0  0  0  0  0  0  0  0  0
   -4.5320    0.7261    1.9638 O   0  0  0  0  0  0  0  0  0  0  0  0
   -1.3447    2.9817    0.0497 C   0  0  0  0  0  0  0  0  0  0  0  0
   -1.2823    3.4209   -1.2870 C   0  0  0  0  0  0  0  0  0  0  0  0
   -0.2756    4.3311   -1.6744 C   0  0  0  0  0  0  0  0  0  0  0  0
    0.5984    4.8880   -0.7161 C   0  0  0  0  0  0  0  0  0  0  0  0
    0.4271    4.5822    0.6459 C   0  0  0  0  0  0  0  0  0  0  0  0
   -0.5617    3.6506    0.9890 C   0  0  0  0  0  0  0  0  0  0  0  0
    0.9850    1.1039    3.3703 N   0  0  0  0  0  0  0  0  0  0  0  0
    0.8609    0.6352    1.9809 C   0  0  0  0  0  0  0  0  0  0  0  0
    2.1808    0.0098    1.5033 C   0  0  0  0  0  0  0  0  0  0  0  0
    3.1903    1.0330    1.5460 O   0  0  0  0  0  0  0  0  0  0  0  0
    3.2707    1.9025    0.4013 C   0  0  0  0  0  0  0  0  0  0  0  0
    4.3461    1.3353   -0.5468 C   0  0  0  0  0  0  0  0  0  0  0  0
    3.7910    0.2123   -1.2384 O   0  0  0  0  0  0  0  0  0  0  0  0
    4.7445   -0.6615   -1.8521 C   0  0  0  0  0  0  0  0  0  0  0  0
    3.9600   -1.6839   -2.6925 C   0  0  0  0  0  0  0  0  0  0  0  0
    2.9529   -2.3828   -1.8731 N   0  0  0  0  0  0  0  0  0  0  0  0
    1.6174   -2.5352   -2.2315 C   0  0  0  0  0  0  0  0  0  0  0  0
    1.1724   -2.4539   -3.5737 C   0  0  0  0  0  0  0  0  0  0  0  0
   -0.2010   -2.5594   -3.8958 C   0  0  0  0  0  0  0  0  0  0  0  0
   -1.1607   -2.7600   -2.8847 C   0  0  0  0  0  0  0  0  0  0  0  0
   -0.7075   -2.8632   -1.5638 C   0  0  0  0  0  0  0  0  0  0  0  0
    0.6423   -2.7562   -1.2450 C   0  0  0  0  0  0  0  0  0  0  0  0
    0.7682   -2.9120    0.1152 C   0  0  0  0  0  0  0  0  0  0  0  0
    1.8006   -3.1470    0.7288 O   0  0  0  0  0  0  0  0  0  0  0  0
   -0.5073   -3.1184    0.6798 N   0  0  0  0  0  0  0  0  0  0  0  0
   -0.7132   -3.7046    2.0433 C   0  0  0  0  0  0  0  0  0  0  0  0
   -2.1822   -3.7884    2.5284 C   0  0  0  0  0  0  0  0  0  0  0  0
   -2.7458   -2.3612    2.7384 C   0  0  0  0  0  0  0  0  0  0  0  0
   -1.8373   -1.4939    3.5786 C   0  0  0  0  0  0  0  0  0  0  0  0
   -2.1916   -0.4330    4.0659 O   0  0  0  0  0  0  0  0  0  0  0  0
   -0.5044   -1.8758    3.7764 N   0  0  0  0  0  0  0  0  0  0  0  0
    0.0825   -2.9696    3.1203 C   0  0  0  0  0  0  0  0  0  0  0  0
    1.0853   -3.4290    3.6491 O   0  0  0  0  0  0  0  0  0  0  0  0
   -1.4140   -3.0827   -0.4067 C   0  0  0  0  0  0  0  0  0  0  0  0
   -2.6074   -3.3483   -0.3242 O   0  0  0  0  0  0  0  0  0  0  0  0
   -0.7292    3.8732    4.2103 H   0  0  0  0  0  0  0  0  0  0  0  0
    0.7438    3.7463    3.2519 H   0  0  0  0  0  0  0  0  0  0  0  0
   -2.5956    1.9673    2.8914 H   0  0  0  0  0  0  0  0  0  0  0  0
   -0.4837    0.1425   -0.5880 H   0  0  0  0  0  0  0  0  0  0  0  0
    1.3668    0.3449   -2.2220 H   0  0  0  0  0  0  0  0  0  0  0  0
   -1.4673    1.3084   -5.3255 H   0  0  0  0  0  0  0  0  0  0  0  0
   -5.3190   -1.0854    0.3578 H   0  0  0  0  0  0  0  0  0  0  0  0
   -2.0147    3.1081   -2.0168 H   0  0  0  0  0  0  0  0  0  0  0  0
   -0.1988    4.6328   -2.7154 H   0  0  0  0  0  0  0  0  0  0  0  0
    1.3538    5.6058   -1.0242 H   0  0  0  0  0  0  0  0  0  0  0  0
    1.0189    5.0842    1.4044 H   0  0  0  0  0  0  0  0  0  0  0  0
    1.6871    0.6632    3.9511 H   0  0  0  0  0  0  0  0  0  0  0  0
    0.6063    1.4657    1.3187 H   0  0  0  0  0  0  0  0  0  0  0  0
    0.0526   -0.1036    1.9142 H   0  0  0  0  0  0  0  0  0  0  0  0
    2.0619   -0.3951    0.4909 H   0  0  0  0  0  0  0  0  0  0  0  0
    2.4492   -0.8228    2.1668 H   0  0  0  0  0  0  0  0  0  0  0  0
    3.5769    2.9052    0.7221 H   0  0  0  0  0  0  0  0  0  0  0  0
    2.3089    1.9945   -0.1211 H   0  0  0  0  0  0  0  0  0  0  0  0
    5.2239    1.0473    0.0477 H   0  0  0  0  0  0  0  0  0  0  0  0
    4.6497    2.1083   -1.2647 H   0  0  0  0  0  0  0  0  0  0  0  0
    5.4252   -0.0983   -2.5055 H   0  0  0  0  0  0  0  0  0  0  0  0
    5.3379   -1.1820   -1.0878 H   0  0  0  0  0  0  0  0  0  0  0  0
    3.4828   -1.1399   -3.5160 H   0  0  0  0  0  0  0  0  0  0  0  0
    4.6604   -2.4099   -3.1240 H   0  0  0  0  0  0  0  0  0  0  0  0
    3.1516   -2.4900   -0.8835 H   0  0  0  0  0  0  0  0  0  0  0  0
    1.8814   -2.2994   -4.3798 H   0  0  0  0  0  0  0  0  0  0  0  0
   -0.5188   -2.4777   -4.9315 H   0  0  0  0  0  0  0  0  0  0  0  0
   -2.2202   -2.8318   -3.1184 H   0  0  0  0  0  0  0  0  0  0  0  0
   -0.3147   -4.7282    2.0054 H   0  0  0  0  0  0  0  0  0  0  0  0
   -2.2042   -4.3247    3.4878 H   0  0  0  0  0  0  0  0  0  0  0  0
   -2.8056   -4.3804    1.8480 H   0  0  0  0  0  0  0  0  0  0  0  0
   -2.8896   -1.8660    1.7735 H   0  0  0  0  0  0  0  0  0  0  0  0
   -3.7352   -2.4081    3.2086 H   0  0  0  0  0  0  0  0  0  0  0  0
    0.0403   -1.3737    4.4629 H   0  0  0  0  0  0  0  0  0  0  0  0
  1  2  2  0  0  0  0
  2  3  1  0  0  0  0
  2 28  1  0  0  0  0
  3  4  1  0  0  0  0
  3 57  1  0  0  0  0
  3 58  1  0  0  0  0
  4  5  1  0  0  0  0
  4 27  1  0  0  0  0
  5  6  2  0  0  0  0
  5 59  1  0  0  0  0
  6  7  1  0  0  0  0
  6 22  1  0  0  0  0
  7  8  2  0  0  0  0
  7 20  1  0  0  0  0
  8  9  1  0  0  0  0
  8 17  1  0  0  0  0
  9 10  2  0  0  0  0
  9 15  1  0  0  0  0
 10 11  1  0  0  0  0
 10 60  1  0  0  0  0
 11 12  2  0  0  0  0
 11 61  1  0  0  0  0
 12 13  1  0  0  0  0
 12 14  1  0  0  0  0
 14 15  2  0  0  0  0
 14 62  1  0  0  0  0
 15 16  1  0  0  0  0
 17 18  2  0  0  0  0
 17 19  1  0  0  0  0
 19 20  1  0  0  0  0
 19 63  1  0  0  0  0
 20 21  2  0  0  0  0
 22 23  2  0  0  0  0
 22 27  1  0  0  0  0
 23 24  1  0  0  0  0
 23 64  1  0  0  0  0
 24 25  2  0  0  0  0
 24 65  1  0  0  0  0
 25 26  1  0  0  0  0
 25 66  1  0  0  0  0
 26 27  2  0  0  0  0
 26 67  1  0  0  0  0
 28 29  1  0  0  0  0
 28 68  1  0  0  0  0
 29 30  1  0  0  0  0
 29 69  1  0  0  0  0
 29 70  1  0  0  0  0
 30 31  1  0  0  0  0
 30 71  1  0  0  0  0
 30 72  1  0  0  0  0
 31 32  1  0  0  0  0
 32 33  1  0  0  0  0
 32 73  1  0  0  0  0
 32 74  1  0  0  0  0
 33 34  1  0  0  0  0
 33 75  1  0  0  0  0
 33 76  1  0  0  0  0
 34 35  1  0  0  0  0
 35 36  1  0  0  0  0
 35 77  1  0  0  0  0
 35 78  1  0  0  0  0
 36 37  1  0  0  0  0
 36 79  1  0  0  0  0
 36 80  1  0  0  0  0
 37 38  1  0  0  0  0
 37 81  1  0  0  0  0
 38 39  2  0  0  0  0
 38 43  1  0  0  0  0
 39 40  1  0  0  0  0
 39 82  1  0  0  0  0
 40 41  2  0  0  0  0
 40 83  1  0  0  0  0
 41 42  1  0  0  0  0
 41 84  1  0  0  0  0
 42 43  2  0  0  0  0
 42 55  1  0  0  0  0
 43 44  1  0  0  0  0
 44 45  2  0  0  0  0
 44 46  1  0  0  0  0
 46 47  1  0  0  0  0
 46 55  1  0  0  0  0
 47 48  1  0  0  0  0
 47 53  1  0  0  0  0
 47 85  1  0  0  0  0
 48 49  1  0  0  0  0
 48 86  1  0  0  0  0
 48 87  1  0  0  0  0
 49 50  1  0  0  0  0
 49 88  1  0  0  0  0
 49 89  1  0  0  0  0
 50 51  2  0  0  0  0
 50 52  1  0  0  0  0
 52 53  1  0  0  0  0
 52 90  1  0  0  0  0
 53 54  2  0  0  0  0
 55 56  2  0  0  0  0
M  END
$$$$
protac3895RUN2
  chem.cr 07102519423D
protac3895RUN2
 90 96  0  0  0  0  0  0  0  0999 V2000
    1.6148    3.3665    6.7765 O   0  0  0  0  0  0  0  0  0  0  0  0
    0.9222    2.8608    5.9067 C   0  0  0  0  0  0  0  0  0  0  0  0
   -0.0727    3.6520    5.0819 C   0  0  0  0  0  0  0  0  0  0  0  0
    0.1185    3.5649    3.6201 N   0  0  0  0  0  0  0  0  0  0  0  0
   -0.9780    3.5956    2.7479 C   0  0  0  0  0  0  0  0  0  0  0  0
   -0.6083    4.0261    1.5230 C   0  0  0  0  0  0  0  0  0  0  0  0
   -1.3850    4.0206    0.3950 C   0  0  0  0  0  0  0  0  0  0  0  0
   -1.0635    4.1192   -0.9205 C   0  0  0  0  0  0  0  0  0  0  0  0
    0.2024    4.0844   -1.4801 C   0  0  0  0  0  0  0  0  0  0  0  0
    1.0334    2.9788   -1.2077 C   0  0  0  0  0  0  0  0  0  0  0  0
    2.3210    2.8955   -1.7632 C   0  0  0  0  0  0  0  0  0  0  0  0
    2.7843    3.9127   -2.6106 C   0  0  0  0  0  0  0  0  0  0  0  0
    4.4017    3.8198   -3.2973 Cl  0  0  0  0  0  0  0  0  0  0  0  0
    1.9600    5.0087   -2.9081 C   0  0  0  0  0  0  0  0  0  0  0  0
    0.6694    5.0947   -2.3571 C   0  0  0  0  0  0  0  0  0  0  0  0
   -0.2996    6.5266   -2.7091 Cl  0  0  0  0  0  0  0  0  0  0  0  0
   -2.1531    4.0062   -1.6902 C   0  0  0  0  0  0  0  0  0  0  0  0
   -2.3212    3.9165   -2.8997 O   0  0  0  0  0  0  0  0  0  0  0  0
   -3.2643    3.8832   -0.8718 N   0  0  0  0  0  0  0  0  0  0  0  0
   -2.7270    3.8291    0.4113 C   0  0  0  0  0  0  0  0  0  0  0  0
   -3.5348    3.6535    1.3173 O   0  0  0  0  0  0  0  0  0  0  0  0
    0.7309    4.4256    1.6646 C   0  0  0  0  0  0  0  0  0  0  0  0
    1.5221    5.3031    0.8993 C   0  0  0  0  0  0  0  0  0  0  0  0
    2.8224    5.6317    1.3366 C   0  0  0  0  0  0  0  0  0  0  0  0
    3.3053    5.1687    2.5784 C   0  0  0  0  0  0  0  0  0  0  0  0
    2.4644    4.4193    3.4188 C   0  0  0  0  0  0  0  0  0  0  0  0
    1.1869    4.0911    2.9433 C   0  0  0  0  0  0  0  0  0  0  0  0
    1.2187    1.5297    5.5815 N   0  0  0  0  0  0  0  0  0  0  0  0
    0.3397    0.6057    4.8442 C   0  0  0  0  0  0  0  0  0  0  0  0
    1.0027    0.0952    3.5532 C   0  0  0  0  0  0  0  0  0  0  0  0
    0.3405   -1.1252    3.2057 O   0  0  0  0  0  0  0  0  0  0  0  0
    0.8839   -1.8012    2.0652 C   0  0  0  0  0  0  0  0  0  0  0  0
    0.3248   -3.2325    2.0735 C   0  0  0  0  0  0  0  0  0  0  0  0
    1.1743   -4.0265    1.2376 O   0  0  0  0  0  0  0  0  0  0  0  0
    0.8341   -5.4178    1.1713 C   0  0  0  0  0  0  0  0  0  0  0  0
    1.6698   -6.0385    0.0377 C   0  0  0  0  0  0  0  0  0  0  0  0
    1.3951   -5.2965   -1.1997 N   0  0  0  0  0  0  0  0  0  0  0  0
    0.6928   -5.8354   -2.2663 C   0  0  0  0  0  0  0  0  0  0  0  0
    0.9528   -7.1295   -2.7730 C   0  0  0  0  0  0  0  0  0  0  0  0
    0.2237   -7.6366   -3.8783 C   0  0  0  0  0  0  0  0  0  0  0  0
   -0.7806   -6.8586   -4.4926 C   0  0  0  0  0  0  0  0  0  0  0  0
   -1.0347   -5.5831   -3.9707 C   0  0  0  0  0  0  0  0  0  0  0  0
   -0.3144   -5.0867   -2.8862 C   0  0  0  0  0  0  0  0  0  0  0  0
   -0.7981   -3.8327   -2.5921 C   0  0  0  0  0  0  0  0  0  0  0  0
   -0.3745   -3.0383   -1.7615 O   0  0  0  0  0  0  0  0  0  0  0  0
   -1.8124   -3.5126   -3.5084 N   0  0  0  0  0  0  0  0  0  0  0  0
   -2.8552   -2.4731   -3.3390 C   0  0  0  0  0  0  0  0  0  0  0  0
   -2.4364   -1.1197   -3.9608 C   0  0  0  0  0  0  0  0  0  0  0  0
   -1.5048   -0.3266   -3.0145 C   0  0  0  0  0  0  0  0  0  0  0  0
   -2.0517   -0.2293   -1.6062 C   0  0  0  0  0  0  0  0  0  0  0  0
   -1.7798    0.6823   -0.8376 O   0  0  0  0  0  0  0  0  0  0  0  0
   -2.9564   -1.1953   -1.1473 N   0  0  0  0  0  0  0  0  0  0  0  0
   -3.3149   -2.3293   -1.8923 C   0  0  0  0  0  0  0  0  0  0  0  0
   -4.1265   -3.0835   -1.3719 O   0  0  0  0  0  0  0  0  0  0  0  0
   -1.9499   -4.6265   -4.3496 C   0  0  0  0  0  0  0  0  0  0  0  0
   -2.7285   -4.6490   -5.2965 O   0  0  0  0  0  0  0  0  0  0  0  0
   -1.0849    3.3273    5.3448 H   0  0  0  0  0  0  0  0  0  0  0  0
    0.0161    4.7084    5.3641 H   0  0  0  0  0  0  0  0  0  0  0  0
   -1.9277    3.1878    3.0797 H   0  0  0  0  0  0  0  0  0  0  0  0
    0.6770    2.1894   -0.5508 H   0  0  0  0  0  0  0  0  0  0  0  0
    2.9562    2.0430   -1.5373 H   0  0  0  0  0  0  0  0  0  0  0  0
    2.3239    5.7972   -3.5599 H   0  0  0  0  0  0  0  0  0  0  0  0
   -4.0821    3.3579   -1.1374 H   0  0  0  0  0  0  0  0  0  0  0  0
    1.1291    5.7934    0.0220 H   0  0  0  0  0  0  0  0  0  0  0  0
    3.4416    6.2852    0.7277 H   0  0  0  0  0  0  0  0  0  0  0  0
    4.3011    5.4509    2.9133 H   0  0  0  0  0  0  0  0  0  0  0  0
    2.7917    4.1386    4.4151 H   0  0  0  0  0  0  0  0  0  0  0  0
    2.0523    1.1526    6.0150 H   0  0  0  0  0  0  0  0  0  0  0  0
   -0.6188    1.0783    4.5961 H   0  0  0  0  0  0  0  0  0  0  0  0
    0.1258   -0.2553    5.4912 H   0  0  0  0  0  0  0  0  0  0  0  0
    2.0672   -0.0990    3.7396 H   0  0  0  0  0  0  0  0  0  0  0  0
    0.9194    0.8438    2.7523 H   0  0  0  0  0  0  0  0  0  0  0  0
    1.9784   -1.8468    2.1283 H   0  0  0  0  0  0  0  0  0  0  0  0
    0.6050   -1.2922    1.1322 H   0  0  0  0  0  0  0  0  0  0  0  0
   -0.7077   -3.2318    1.7004 H   0  0  0  0  0  0  0  0  0  0  0  0
    0.3279   -3.6172    3.1012 H   0  0  0  0  0  0  0  0  0  0  0  0
    1.0542   -5.9229    2.1211 H   0  0  0  0  0  0  0  0  0  0  0  0
   -0.2335   -5.5448    0.9439 H   0  0  0  0  0  0  0  0  0  0  0  0
    2.7368   -5.9687    0.2905 H   0  0  0  0  0  0  0  0  0  0  0  0
    1.4077   -7.0980   -0.0698 H   0  0  0  0  0  0  0  0  0  0  0  0
    1.2266   -4.3027   -1.0618 H   0  0  0  0  0  0  0  0  0  0  0  0
    1.7343   -7.7368   -2.3264 H   0  0  0  0  0  0  0  0  0  0  0  0
    0.4429   -8.6314   -4.2579 H   0  0  0  0  0  0  0  0  0  0  0  0
   -1.3468   -7.2348   -5.3412 H   0  0  0  0  0  0  0  0  0  0  0  0
   -3.7379   -2.8179   -3.8949 H   0  0  0  0  0  0  0  0  0  0  0  0
   -3.3384   -0.5217   -4.1484 H   0  0  0  0  0  0  0  0  0  0  0  0
   -1.9543   -1.2823   -4.9345 H   0  0  0  0  0  0  0  0  0  0  0  0
   -0.5168   -0.8002   -2.9772 H   0  0  0  0  0  0  0  0  0  0  0  0
   -1.3429    0.6863   -3.4076 H   0  0  0  0  0  0  0  0  0  0  0  0
   -3.3067   -1.1145   -0.2059 H   0  0  0  0  0  0  0  0  0  0  0  0
  1  2  2  0  0  0  0
  2  3  1  0  0  0  0
  2 28  1  0  0  0  0
  3  4  1  0  0  0  0
  3 57  1  0  0  0  0
  3 58  1  0  0  0  0
  4  5  1  0  0  0  0
  4 27  1  0  0  0  0
  5  6  2  0  0  0  0
  5 59  1  0  0  0  0
  6  7  1  0  0  0  0
  6 22  1  0  0  0  0
  7  8  2  0  0  0  0
  7 20  1  0  0  0  0
  8  9  1  0  0  0  0
  8 17  1  0  0  0  0
  9 10  2  0  0  0  0
  9 15  1  0  0  0  0
 10 11  1  0  0  0  0
 10 60  1  0  0  0  0
 11 12  2  0  0  0  0
 11 61  1  0  0  0  0
 12 13  1  0  0  0  0
 12 14  1  0  0  0  0
 14 15  2  0  0  0  0
 14 62  1  0  0  0  0
 15 16  1  0  0  0  0
 17 18  2  0  0  0  0
 17 19  1  0  0  0  0
 19 20  1  0  0  0  0
 19 63  1  0  0  0  0
 20 21  2  0  0  0  0
 22 23  2  0  0  0  0
 22 27  1  0  0  0  0
 23 24  1  0  0  0  0
 23 64  1  0  0  0  0
 24 25  2  0  0  0  0
 24 65  1  0  0  0  0
 25 26  1  0  0  0  0
 25 66  1  0  0  0  0
 26 27  2  0  0  0  0
 26 67  1  0  0  0  0
 28 29  1  0  0  0  0
 28 68  1  0  0  0  0
 29 30  1  0  0  0  0
 29 69  1  0  0  0  0
 29 70  1  0  0  0  0
 30 31  1  0  0  0  0
 30 71  1  0  0  0  0
 30 72  1  0  0  0  0
 31 32  1  0  0  0  0
 32 33  1  0  0  0  0
 32 73  1  0  0  0  0
 32 74  1  0  0  0  0
 33 34  1  0  0  0  0
 33 75  1  0  0  0  0
 33 76  1  0  0  0  0
 34 35  1  0  0  0  0
 35 36  1  0  0  0  0
 35 77  1  0  0  0  0
 35 78  1  0  0  0  0
 36 37  1  0  0  0  0
 36 79  1  0  0  0  0
 36 80  1  0  0  0  0
 37 38  1  0  0  0  0
 37 81  1  0  0  0  0
 38 39  2  0  0  0  0
 38 43  1  0  0  0  0
 39 40  1  0  0  0  0
 39 82  1  0  0  0  0
 40 41  2  0  0  0  0
 40 83  1  0  0  0  0
 41 42  1  0  0  0  0
 41 84  1  0  0  0  0
 42 43  2  0  0  0  0
 42 55  1  0  0  0  0
 43 44  1  0  0  0  0
 44 45  2  0  0  0  0
 44 46  1  0  0  0  0
 46 47  1  0  0  0  0
 46 55  1  0  0  0  0
 47 48  1  0  0  0  0
 47 53  1  0  0  0  0
 47 85  1  0  0  0  0
 48 49  1  0  0  0  0
 48 86  1  0  0  0  0
 48 87  1  0  0  0  0
 49 50  1  0  0  0  0
 49 88  1  0  0  0  0
 49 89  1  0  0  0  0
 50 51  2  0  0  0  0
 50 52  1  0  0  0  0
 52 53  1  0  0  0  0
 52 90  1  0  0  0  0
 53 54  2  0  0  0  0
 55 56  2  0  0  0  0
M  END
$$$$
protac3895RUN2
  chem.cr 07102519423D
protac3895RUN2
 90 96  0  0  0  0  0  0  0  0999 V2000
    1.2547    1.7446    4.5860 O   0  0  0  0  0  0  0  0  0  0  0  0
    0.1735    2.2834    4.7698 C   0  0  0  0  0  0  0  0  0  0  0  0
    0.0030    3.7810    4.6793 C   0  0  0  0  0  0  0  0  0  0  0  0
    0.0097    4.3004    3.2969 N   0  0  0  0  0  0  0  0  0  0  0  0
   -0.6573    3.6934    2.2266 C   0  0  0  0  0  0  0  0  0  0  0  0
   -0.2066    4.1806    1.0469 C   0  0  0  0  0  0  0  0  0  0  0  0
   -0.5210    3.6896   -0.1954 C   0  0  0  0  0  0  0  0  0  0  0  0
    0.0522    3.8557   -1.4161 C   0  0  0  0  0  0  0  0  0  0  0  0
    1.2476    4.4838   -1.7236 C   0  0  0  0  0  0  0  0  0  0  0  0
    2.4355    4.0296   -1.1155 C   0  0  0  0  0  0  0  0  0  0  0  0
    3.6753    4.5991   -1.4518 C   0  0  0  0  0  0  0  0  0  0  0  0
    3.7382    5.6310   -2.3998 C   0  0  0  0  0  0  0  0  0  0  0  0
    5.2893    6.3452   -2.8228 Cl  0  0  0  0  0  0  0  0  0  0  0  0
    2.5640    6.0887   -3.0203 C   0  0  0  0  0  0  0  0  0  0  0  0
    1.3232    5.5144   -2.6945 C   0  0  0  0  0  0  0  0  0  0  0  0
   -0.1254    6.1490   -3.4797 Cl  0  0  0  0  0  0  0  0  0  0  0  0
   -0.5712    3.1216   -2.3446 C   0  0  0  0  0  0  0  0  0  0  0  0
   -0.3305    2.8739   -3.5186 O   0  0  0  0  0  0  0  0  0  0  0  0
   -1.6409    2.4732   -1.7555 N   0  0  0  0  0  0  0  0  0  0  0  0
   -1.5329    2.8106   -0.4109 C   0  0  0  0  0  0  0  0  0  0  0  0
   -2.3593    2.2864    0.3282 O   0  0  0  0  0  0  0  0  0  0  0  0
    0.6827    5.2173    1.3954 C   0  0  0  0  0  0  0  0  0  0  0  0
    1.1830    6.3068    0.6568 C   0  0  0  0  0  0  0  0  0  0  0  0
    2.0077    7.2632    1.2899 C   0  0  0  0  0  0  0  0  0  0  0  0
    2.2597    7.1933    2.6763 C   0  0  0  0  0  0  0  0  0  0  0  0
    1.6438    6.1919    3.4488 C   0  0  0  0  0  0  0  0  0  0  0  0
    0.8584    5.2407    2.7828 C   0  0  0  0  0  0  0  0  0  0  0  0
   -0.7604    1.6091    5.5746 N   0  0  0  0  0  0  0  0  0  0  0  0
   -1.3710    0.3107    5.2227 C   0  0  0  0  0  0  0  0  0  0  0  0
   -0.4089   -0.6809    4.5471 C   0  0  0  0  0  0  0  0  0  0  0  0
   -1.1304   -1.8947    4.3316 O   0  0  0  0  0  0  0  0  0  0  0  0
   -0.3987   -2.8757    3.5895 C   0  0  0  0  0  0  0  0  0  0  0  0
   -1.3098   -4.0932    3.3879 C   0  0  0  0  0  0  0  0  0  0  0  0
   -0.6350   -4.9522    2.4669 O   0  0  0  0  0  0  0  0  0  0  0  0
   -1.3378   -6.1442    2.1075 C   0  0  0  0  0  0  0  0  0  0  0  0
   -0.5298   -6.7946    0.9716 C   0  0  0  0  0  0  0  0  0  0  0  0
   -0.5662   -5.9395   -0.2289 N   0  0  0  0  0  0  0  0  0  0  0  0
   -1.4001   -6.0899   -1.3347 C   0  0  0  0  0  0  0  0  0  0  0  0
   -2.2585   -7.2028   -1.5185 C   0  0  0  0  0  0  0  0  0  0  0  0
   -3.0649   -7.3258   -2.6755 C   0  0  0  0  0  0  0  0  0  0  0  0
   -3.0364   -6.3367   -3.6763 C   0  0  0  0  0  0  0  0  0  0  0  0
   -2.2011   -5.2333   -3.4794 C   0  0  0  0  0  0  0  0  0  0  0  0
   -1.4050   -5.1081   -2.3396 C   0  0  0  0  0  0  0  0  0  0  0  0
   -0.6907   -3.9339   -2.4520 C   0  0  0  0  0  0  0  0  0  0  0  0
    0.2780   -3.5843   -1.7886 O   0  0  0  0  0  0  0  0  0  0  0  0
   -1.0049   -3.3481   -3.6889 N   0  0  0  0  0  0  0  0  0  0  0  0
   -0.5337   -2.0547   -4.2335 C   0  0  0  0  0  0  0  0  0  0  0  0
    0.7177   -2.2472   -5.1221 C   0  0  0  0  0  0  0  0  0  0  0  0
    1.9979   -2.2954   -4.2589 C   0  0  0  0  0  0  0  0  0  0  0  0
    2.1083   -1.0849   -3.3577 C   0  0  0  0  0  0  0  0  0  0  0  0
    3.1686   -0.5432   -3.0810 O   0  0  0  0  0  0  0  0  0  0  0  0
    0.9350   -0.4642   -2.9107 N   0  0  0  0  0  0  0  0  0  0  0  0
   -0.3452   -0.9807   -3.1649 C   0  0  0  0  0  0  0  0  0  0  0  0
   -1.2816   -0.3828   -2.6502 O   0  0  0  0  0  0  0  0  0  0  0  0
   -1.9747   -4.1505   -4.2945 C   0  0  0  0  0  0  0  0  0  0  0  0
   -2.3036   -4.0072   -5.4657 O   0  0  0  0  0  0  0  0  0  0  0  0
   -0.9335    4.0915    5.1524 H   0  0  0  0  0  0  0  0  0  0  0  0
    0.8291    4.2406    5.2314 H   0  0  0  0  0  0  0  0  0  0  0  0
   -1.3274    2.8615    2.4314 H   0  0  0  0  0  0  0  0  0  0  0  0
    2.3925    3.2284   -0.3826 H   0  0  0  0  0  0  0  0  0  0  0  0
    4.5855    4.2378   -0.9792 H   0  0  0  0  0  0  0  0  0  0  0  0
    2.6142    6.8864   -3.7553 H   0  0  0  0  0  0  0  0  0  0  0  0
   -1.9427    1.5544   -2.0531 H   0  0  0  0  0  0  0  0  0  0  0  0
    0.9075    6.4644   -0.3740 H   0  0  0  0  0  0  0  0  0  0  0  0
    2.4239    8.0811    0.7089 H   0  0  0  0  0  0  0  0  0  0  0  0
    2.8799    7.9457    3.1564 H   0  0  0  0  0  0  0  0  0  0  0  0
    1.7526    6.1783    4.5270 H   0  0  0  0  0  0  0  0  0  0  0  0
   -1.1196    2.0978    6.3849 H   0  0  0  0  0  0  0  0  0  0  0  0
   -2.2215    0.4828    4.5503 H   0  0  0  0  0  0  0  0  0  0  0  0
   -1.7575   -0.1591    6.1367 H   0  0  0  0  0  0  0  0  0  0  0  0
    0.4637   -0.8551    5.1912 H   0  0  0  0  0  0  0  0  0  0  0  0
   -0.0588   -0.2679    3.5904 H   0  0  0  0  0  0  0  0  0  0  0  0
    0.5094   -3.1798    4.1265 H   0  0  0  0  0  0  0  0  0  0  0  0
   -0.1082   -2.4771    2.6073 H   0  0  0  0  0  0  0  0  0  0  0  0
   -2.2722   -3.7629    2.9754 H   0  0  0  0  0  0  0  0  0  0  0  0
   -1.4828   -4.5963    4.3479 H   0  0  0  0  0  0  0  0  0  0  0  0
   -1.4004   -6.8276    2.9645 H   0  0  0  0  0  0  0  0  0  0  0  0
   -2.3544   -5.9146    1.7593 H   0  0  0  0  0  0  0  0  0  0  0  0
    0.5104   -6.9085    1.3046 H   0  0  0  0  0  0  0  0  0  0  0  0
   -0.9113   -7.8001    0.7680 H   0  0  0  0  0  0  0  0  0  0  0  0
   -0.0147   -5.0857   -0.2086 H   0  0  0  0  0  0  0  0  0  0  0  0
   -2.3117   -7.9917   -0.7781 H   0  0  0  0  0  0  0  0  0  0  0  0
   -3.7067   -8.1948   -2.7970 H   0  0  0  0  0  0  0  0  0  0  0  0
   -3.6413   -6.4207   -4.5755 H   0  0  0  0  0  0  0  0  0  0  0  0
   -1.3359   -1.6838   -4.8853 H   0  0  0  0  0  0  0  0  0  0  0  0
    0.7901   -1.4024   -5.8206 H   0  0  0  0  0  0  0  0  0  0  0  0
    0.6192   -3.1568   -5.7301 H   0  0  0  0  0  0  0  0  0  0  0  0
    2.0092   -3.2014   -3.6408 H   0  0  0  0  0  0  0  0  0  0  0  0
    2.8824   -2.3501   -4.9051 H   0  0  0  0  0  0  0  0  0  0  0  0
    1.0175    0.3653   -2.3421 H   0  0  0  0  0  0  0  0  0  0  0  0
  1  2  2  0  0  0  0
  2  3  1  0  0  0  0
  2 28  1  0  0  0  0
  3  4  1  0  0  0  0
  3 57  1  0  0  0  0
  3 58  1  0  0  0  0
  4  5  1  0  0  0  0
  4 27  1  0  0  0  0
  5  6  2  0  0  0  0
  5 59  1  0  0  0  0
  6  7  1  0  0  0  0
  6 22  1  0  0  0  0
  7  8  2  0  0  0  0
  7 20  1  0  0  0  0
  8  9  1  0  0  0  0
  8 17  1  0  0  0  0
  9 10  2  0  0  0  0
  9 15  1  0  0  0  0
 10 11  1  0  0  0  0
 10 60  1  0  0  0  0
 11 12  2  0  0  0  0
 11 61  1  0  0  0  0
 12 13  1  0  0  0  0
 12 14  1  0  0  0  0
 14 15  2  0  0  0  0
 14 62  1  0  0  0  0
 15 16  1  0  0  0  0
 17 18  2  0  0  0  0
 17 19  1  0  0  0  0
 19 20  1  0  0  0  0
 19 63  1  0  0  0  0
 20 21  2  0  0  0  0
 22 23  2  0  0  0  0
 22 27  1  0  0  0  0
 23 24  1  0  0  0  0
 23 64  1  0  0  0  0
 24 25  2  0  0  0  0
 24 65  1  0  0  0  0
 25 26  1  0  0  0  0
 25 66  1  0  0  0  0
 26 27  2  0  0  0  0
 26 67  1  0  0  0  0
 28 29  1  0  0  0  0
 28 68  1  0  0  0  0
 29 30  1  0  0  0  0
 29 69  1  0  0  0  0
 29 70  1  0  0  0  0
 30 31  1  0  0  0  0
 30 71  1  0  0  0  0
 30 72  1  0  0  0  0
 31 32  1  0  0  0  0
 32 33  1  0  0  0  0
 32 73  1  0  0  0  0
 32 74  1  0  0  0  0
 33 34  1  0  0  0  0
 33 75  1  0  0  0  0
 33 76  1  0  0  0  0
 34 35  1  0  0  0  0
 35 36  1  0  0  0  0
 35 77  1  0  0  0  0
 35 78  1  0  0  0  0
 36 37  1  0  0  0  0
 36 79  1  0  0  0  0
 36 80  1  0  0  0  0
 37 38  1  0  0  0  0
 37 81  1  0  0  0  0
 38 39  2  0  0  0  0
 38 43  1  0  0  0  0
 39 40  1  0  0  0  0
 39 82  1  0  0  0  0
 40 41  2  0  0  0  0
 40 83  1  0  0  0  0
 41 42  1  0  0  0  0
 41 84  1  0  0  0  0
 42 43  2  0  0  0  0
 42 55  1  0  0  0  0
 43 44  1  0  0  0  0
 44 45  2  0  0  0  0
 44 46  1  0  0  0  0
 46 47  1  0  0  0  0
 46 55  1  0  0  0  0
 47 48  1  0  0  0  0
 47 53  1  0  0  0  0
 47 85  1  0  0  0  0
 48 49  1  0  0  0  0
 48 86  1  0  0  0  0
 48 87  1  0  0  0  0
 49 50  1  0  0  0  0
 49 88  1  0  0  0  0
 49 89  1  0  0  0  0
 50 51  2  0  0  0  0
 50 52  1  0  0  0  0
 52 53  1  0  0  0  0
 52 90  1  0  0  0  0
 53 54  2  0  0  0  0
 55 56  2  0  0  0  0
M  END
$$$$
protac3895RUN2
  chem.cr 07102519423D
protac3895RUN2
 90 96  0  0  0  0  0  0  0  0999 V2000
   -1.1293    3.5726    6.5334 O   0  0  0  0  0  0  0  0  0  0  0  0
   -1.0248    2.7268    5.6603 C   0  0  0  0  0  0  0  0  0  0  0  0
   -1.5547    2.9386    4.2617 C   0  0  0  0  0  0  0  0  0  0  0  0
   -0.5056    3.1582    3.2472 N   0  0  0  0  0  0  0  0  0  0  0  0
   -0.4898    2.3470    2.1041 C   0  0  0  0  0  0  0  0  0  0  0  0
   -0.1062    3.0353    1.0060 C   0  0  0  0  0  0  0  0  0  0  0  0
    0.1590    2.4875   -0.2259 C   0  0  0  0  0  0  0  0  0  0  0  0
    0.7765    2.9733   -1.3354 C   0  0  0  0  0  0  0  0  0  0  0  0
    1.4349    4.1811   -1.4873 C   0  0  0  0  0  0  0  0  0  0  0  0
    2.5170    4.4842   -0.6353 C   0  0  0  0  0  0  0  0  0  0  0  0
    3.2053    5.7037   -0.7585 C   0  0  0  0  0  0  0  0  0  0  0  0
    2.8341    6.6199   -1.7544 C   0  0  0  0  0  0  0  0  0  0  0  0
    3.6794    8.1544   -1.9004 Cl  0  0  0  0  0  0  0  0  0  0  0  0
    1.7804    6.3175   -2.6305 C   0  0  0  0  0  0  0  0  0  0  0  0
    1.0770    5.1062   -2.4999 C   0  0  0  0  0  0  0  0  0  0  0  0
   -0.3050    4.8172   -3.5606 Cl  0  0  0  0  0  0  0  0  0  0  0  0
    0.8252    2.0485   -2.3043 C   0  0  0  0  0  0  0  0  0  0  0  0
    1.3142    2.0312   -3.4267 O   0  0  0  0  0  0  0  0  0  0  0  0
    0.2381    0.8884   -1.8387 N   0  0  0  0  0  0  0  0  0  0  0  0
   -0.1665    1.2092   -0.5488 C   0  0  0  0  0  0  0  0  0  0  0  0
   -0.7444    0.3125    0.0567 O   0  0  0  0  0  0  0  0  0  0  0  0
    0.0115    4.3661    1.4439 C   0  0  0  0  0  0  0  0  0  0  0  0
    0.0157    5.5940    0.7512 C   0  0  0  0  0  0  0  0  0  0  0  0
    0.0757    6.8062    1.4719 C   0  0  0  0  0  0  0  0  0  0  0  0
    0.0422    6.8100    2.8814 C   0  0  0  0  0  0  0  0  0  0  0  0
   -0.1192    5.5984    3.5784 C   0  0  0  0  0  0  0  0  0  0  0  0
   -0.1573    4.4133    2.8308 C   0  0  0  0  0  0  0  0  0  0  0  0
   -0.9806    1.4069    6.1175 N   0  0  0  0  0  0  0  0  0  0  0  0
   -0.1305    0.3842    5.4931 C   0  0  0  0  0  0  0  0  0  0  0  0
   -0.9004   -0.9262    5.2600 C   0  0  0  0  0  0  0  0  0  0  0  0
    0.0651   -1.9288    4.9105 O   0  0  0  0  0  0  0  0  0  0  0  0
   -0.4597   -3.2569    4.7296 C   0  0  0  0  0  0  0  0  0  0  0  0
   -1.1491   -3.3582    3.3424 C   0  0  0  0  0  0  0  0  0  0  0  0
   -0.4234   -4.2650    2.4934 O   0  0  0  0  0  0  0  0  0  0  0  0
    0.8972   -3.8553    2.1083 C   0  0  0  0  0  0  0  0  0  0  0  0
    1.3600   -4.7867    0.9714 C   0  0  0  0  0  0  0  0  0  0  0  0
    0.7296   -4.4050   -0.3045 N   0  0  0  0  0  0  0  0  0  0  0  0
   -0.3697   -5.0100   -0.9055 C   0  0  0  0  0  0  0  0  0  0  0  0
   -1.1545   -6.0117   -0.2868 C   0  0  0  0  0  0  0  0  0  0  0  0
   -2.2582   -6.5947   -0.9602 C   0  0  0  0  0  0  0  0  0  0  0  0
   -2.6023   -6.1885   -2.2669 C   0  0  0  0  0  0  0  0  0  0  0  0
   -1.8268   -5.1856   -2.8619 C   0  0  0  0  0  0  0  0  0  0  0  0
   -0.7437   -4.6115   -2.1959 C   0  0  0  0  0  0  0  0  0  0  0  0
   -0.1920   -3.6601   -3.0239 C   0  0  0  0  0  0  0  0  0  0  0  0
    0.8993   -3.1132   -2.9072 O   0  0  0  0  0  0  0  0  0  0  0  0
   -0.9113   -3.6457   -4.2292 N   0  0  0  0  0  0  0  0  0  0  0  0
   -0.9248   -2.5552   -5.2302 C   0  0  0  0  0  0  0  0  0  0  0  0
   -0.0171   -2.8961   -6.4333 C   0  0  0  0  0  0  0  0  0  0  0  0
    1.4615   -2.6021   -6.0980 C   0  0  0  0  0  0  0  0  0  0  0  0
    1.6517   -1.1850   -5.6105 C   0  0  0  0  0  0  0  0  0  0  0  0
    2.6433   -0.5173   -5.8589 O   0  0  0  0  0  0  0  0  0  0  0  0
    0.6086   -0.5535   -4.9227 N   0  0  0  0  0  0  0  0  0  0  0  0
   -0.6069   -1.1896   -4.6247 C   0  0  0  0  0  0  0  0  0  0  0  0
   -1.4008   -0.5593   -3.9392 O   0  0  0  0  0  0  0  0  0  0  0  0
   -1.9343   -4.5919   -4.0976 C   0  0  0  0  0  0  0  0  0  0  0  0
   -2.6748   -4.8924   -5.0281 O   0  0  0  0  0  0  0  0  0  0  0  0
   -2.1779    2.0862    3.9702 H   0  0  0  0  0  0  0  0  0  0  0  0
   -2.2082    3.8204    4.2725 H   0  0  0  0  0  0  0  0  0  0  0  0
   -0.6733    1.2835    2.2285 H   0  0  0  0  0  0  0  0  0  0  0  0
    2.8046    3.7776    0.1388 H   0  0  0  0  0  0  0  0  0  0  0  0
    4.0215    5.9369   -0.0792 H   0  0  0  0  0  0  0  0  0  0  0  0
    1.4991    7.0280   -3.4023 H   0  0  0  0  0  0  0  0  0  0  0  0
   -0.2680    0.2392   -2.4277 H   0  0  0  0  0  0  0  0  0  0  0  0
   -0.0847    5.6412   -0.3208 H   0  0  0  0  0  0  0  0  0  0  0  0
    0.1163    7.7486    0.9309 H   0  0  0  0  0  0  0  0  0  0  0  0
    0.0770    7.7498    3.4262 H   0  0  0  0  0  0  0  0  0  0  0  0
   -0.2387    5.5844    4.6593 H   0  0  0  0  0  0  0  0  0  0  0  0
   -1.2095    1.2854    7.0973 H   0  0  0  0  0  0  0  0  0  0  0  0
    0.7219    0.1874    6.1583 H   0  0  0  0  0  0  0  0  0  0  0  0
    0.2759    0.7506    4.5407 H   0  0  0  0  0  0  0  0  0  0  0  0
   -1.6450   -0.7871    4.4654 H   0  0  0  0  0  0  0  0  0  0  0  0
   -1.4239   -1.2128    6.1821 H   0  0  0  0  0  0  0  0  0  0  0  0
   -1.1831   -3.4959    5.5188 H   0  0  0  0  0  0  0  0  0  0  0  0
    0.3489   -3.9960    4.8025 H   0  0  0  0  0  0  0  0  0  0  0  0
   -1.2149   -2.3699    2.8690 H   0  0  0  0  0  0  0  0  0  0  0  0
   -2.1729   -3.7270    3.4817 H   0  0  0  0  0  0  0  0  0  0  0  0
    0.9052   -2.8143    1.7602 H   0  0  0  0  0  0  0  0  0  0  0  0
    1.5930   -3.9390    2.9525 H   0  0  0  0  0  0  0  0  0  0  0  0
    2.4491   -4.6997    0.8664 H   0  0  0  0  0  0  0  0  0  0  0  0
    1.1444   -5.8315    1.2289 H   0  0  0  0  0  0  0  0  0  0  0  0
    1.1731   -3.6752   -0.8546 H   0  0  0  0  0  0  0  0  0  0  0  0
   -0.9305   -6.3338    0.7248 H   0  0  0  0  0  0  0  0  0  0  0  0
   -2.8507   -7.3577   -0.4621 H   0  0  0  0  0  0  0  0  0  0  0  0
   -3.4471   -6.6273   -2.7950 H   0  0  0  0  0  0  0  0  0  0  0  0
   -1.9533   -2.4881   -5.6074 H   0  0  0  0  0  0  0  0  0  0  0  0
   -0.3202   -2.2819   -7.2924 H   0  0  0  0  0  0  0  0  0  0  0  0
   -0.1533   -3.9462   -6.7265 H   0  0  0  0  0  0  0  0  0  0  0  0
    1.8251   -3.2925   -5.3281 H   0  0  0  0  0  0  0  0  0  0  0  0
    2.0885   -2.7646   -6.9829 H   0  0  0  0  0  0  0  0  0  0  0  0
    0.7753    0.3777   -4.5605 H   0  0  0  0  0  0  0  0  0  0  0  0
  1  2  2  0  0  0  0
  2  3  1  0  0  0  0
  2 28  1  0  0  0  0
  3  4  1  0  0  0  0
  3 57  1  0  0  0  0
  3 58  1  0  0  0  0
  4  5  1  0  0  0  0
  4 27  1  0  0  0  0
  5  6  2  0  0  0  0
  5 59  1  0  0  0  0
  6  7  1  0  0  0  0
  6 22  1  0  0  0  0
  7  8  2  0  0  0  0
  7 20  1  0  0  0  0
  8  9  1  0  0  0  0
  8 17  1  0  0  0  0
  9 10  2  0  0  0  0
  9 15  1  0  0  0  0
 10 11  1  0  0  0  0
 10 60  1  0  0  0  0
 11 12  2  0  0  0  0
 11 61  1  0  0  0  0
 12 13  1  0  0  0  0
 12 14  1  0  0  0  0
 14 15  2  0  0  0  0
 14 62  1  0  0  0  0
 15 16  1  0  0  0  0
 17 18  2  0  0  0  0
 17 19  1  0  0  0  0
 19 20  1  0  0  0  0
 19 63  1  0  0  0  0
 20 21  2  0  0  0  0
 22 23  2  0  0  0  0
 22 27  1  0  0  0  0
 23 24  1  0  0  0  0
 23 64  1  0  0  0  0
 24 25  2  0  0  0  0
 24 65  1  0  0  0  0
 25 26  1  0  0  0  0
 25 66  1  0  0  0  0
 26 27  2  0  0  0  0
 26 67  1  0  0  0  0
 28 29  1  0  0  0  0
 28 68  1  0  0  0  0
 29 30  1  0  0  0  0
 29 69  1  0  0  0  0
 29 70  1  0  0  0  0
 30 31  1  0  0  0  0
 30 71  1  0  0  0  0
 30 72  1  0  0  0  0
 31 32  1  0  0  0  0
 32 33  1  0  0  0  0
 32 73  1  0  0  0  0
 32 74  1  0  0  0  0
 33 34  1  0  0  0  0
 33 75  1  0  0  0  0
 33 76  1  0  0  0  0
 34 35  1  0  0  0  0
 35 36  1  0  0  0  0
 35 77  1  0  0  0  0
 35 78  1  0  0  0  0
 36 37  1  0  0  0  0
 36 79  1  0  0  0  0
 36 80  1  0  0  0  0
 37 38  1  0  0  0  0
 37 81  1  0  0  0  0
 38 39  2  0  0  0  0
 38 43  1  0  0  0  0
 39 40  1  0  0  0  0
 39 82  1  0  0  0  0
 40 41  2  0  0  0  0
 40 83  1  0  0  0  0
 41 42  1  0  0  0  0
 41 84  1  0  0  0  0
 42 43  2  0  0  0  0
 42 55  1  0  0  0  0
 43 44  1  0  0  0  0
 44 45  2  0  0  0  0
 44 46  1  0  0  0  0
 46 47  1  0  0  0  0
 46 55  1  0  0  0  0
 47 48  1  0  0  0  0
 47 53  1  0  0  0  0
 47 85  1  0  0  0  0
 48 49  1  0  0  0  0
 48 86  1  0  0  0  0
 48 87  1  0  0  0  0
 49 50  1  0  0  0  0
 49 88  1  0  0  0  0
 49 89  1  0  0  0  0
 50 51  2  0  0  0  0
 50 52  1  0  0  0  0
 52 53  1  0  0  0  0
 52 90  1  0  0  0  0
 53 54  2  0  0  0  0
 55 56  2  0  0  0  0
M  END
$$$$
protac3895RUN2
  chem.cr 07102519423D
protac3895RUN2
 90 96  0  0  0  0  0  0  0  0999 V2000
    0.0401    1.9117    6.2195 O   0  0  0  0  0  0  0  0  0  0  0  0
    0.1955    1.2914    5.1793 C   0  0  0  0  0  0  0  0  0  0  0  0
   -0.7542    1.3869    4.0001 C   0  0  0  0  0  0  0  0  0  0  0  0
   -0.3187    2.3585    2.9886 N   0  0  0  0  0  0  0  0  0  0  0  0
    0.2212    2.0385    1.7338 C   0  0  0  0  0  0  0  0  0  0  0  0
    0.5052    3.1750    1.0640 C   0  0  0  0  0  0  0  0  0  0  0  0
    1.2355    3.2888   -0.0841 C   0  0  0  0  0  0  0  0  0  0  0  0
    1.8860    4.3575   -0.6095 C   0  0  0  0  0  0  0  0  0  0  0  0
    2.1146    5.5707    0.0216 C   0  0  0  0  0  0  0  0  0  0  0  0
    2.6935    5.5591    1.3086 C   0  0  0  0  0  0  0  0  0  0  0  0
    2.9001    6.7517    2.0160 C   0  0  0  0  0  0  0  0  0  0  0  0
    2.5515    7.9774    1.4344 C   0  0  0  0  0  0  0  0  0  0  0  0
    2.7823    9.4679    2.3391 Cl  0  0  0  0  0  0  0  0  0  0  0  0
    2.0102    8.0130    0.1388 C   0  0  0  0  0  0  0  0  0  0  0  0
    1.7969    6.8171   -0.5735 C   0  0  0  0  0  0  0  0  0  0  0  0
    1.0420    6.9108   -2.1662 Cl  0  0  0  0  0  0  0  0  0  0  0  0
    2.5369    4.0143   -1.7280 C   0  0  0  0  0  0  0  0  0  0  0  0
    3.3338    4.5978   -2.4498 O   0  0  0  0  0  0  0  0  0  0  0  0
    2.2787    2.6793   -1.9928 N   0  0  0  0  0  0  0  0  0  0  0  0
    1.5232    2.2524   -0.9036 C   0  0  0  0  0  0  0  0  0  0  0  0
    1.2307    1.0600   -0.8755 O   0  0  0  0  0  0  0  0  0  0  0  0
   -0.0447    4.2111    1.8312 C   0  0  0  0  0  0  0  0  0  0  0  0
   -0.4529    5.5067    1.4641 C   0  0  0  0  0  0  0  0  0  0  0  0
   -1.0891    6.3306    2.4163 C   0  0  0  0  0  0  0  0  0  0  0  0
   -1.3981    5.8364    3.7038 C   0  0  0  0  0  0  0  0  0  0  0  0
   -1.1319    4.4904    4.0198 C   0  0  0  0  0  0  0  0  0  0  0  0
   -0.4867    3.7105    3.0526 C   0  0  0  0  0  0  0  0  0  0  0  0
    1.2658    0.3845    5.1523 N   0  0  0  0  0  0  0  0  0  0  0  0
    1.4011   -0.7204    4.1914 C   0  0  0  0  0  0  0  0  0  0  0  0
    0.3233   -1.8002    4.4163 C   0  0  0  0  0  0  0  0  0  0  0  0
   -0.0261   -2.3239    3.1280 O   0  0  0  0  0  0  0  0  0  0  0  0
   -1.1872   -3.1700    3.1038 C   0  0  0  0  0  0  0  0  0  0  0  0
   -2.4732   -2.3048    3.0201 C   0  0  0  0  0  0  0  0  0  0  0  0
   -2.8319   -2.0150    1.6512 O   0  0  0  0  0  0  0  0  0  0  0  0
   -1.9968   -1.1110    0.9077 C   0  0  0  0  0  0  0  0  0  0  0  0
   -1.0551   -1.9028   -0.0249 C   0  0  0  0  0  0  0  0  0  0  0  0
   -1.7726   -2.5005   -1.1658 N   0  0  0  0  0  0  0  0  0  0  0  0
   -1.8930   -3.8732   -1.3412 C   0  0  0  0  0  0  0  0  0  0  0  0
   -2.2777   -4.7406   -0.2953 C   0  0  0  0  0  0  0  0  0  0  0  0
   -2.3510   -6.1403   -0.4932 C   0  0  0  0  0  0  0  0  0  0  0  0
   -2.0538   -6.7033   -1.7518 C   0  0  0  0  0  0  0  0  0  0  0  0
   -1.7085   -5.8314   -2.7908 C   0  0  0  0  0  0  0  0  0  0  0  0
   -1.6379   -4.4532   -2.5910 C   0  0  0  0  0  0  0  0  0  0  0  0
   -1.2409   -3.8695   -3.7709 C   0  0  0  0  0  0  0  0  0  0  0  0
   -0.8704   -2.7141   -3.9334 O   0  0  0  0  0  0  0  0  0  0  0  0
   -1.0301   -4.8878   -4.7157 N   0  0  0  0  0  0  0  0  0  0  0  0
   -0.4515   -4.7739   -6.0741 C   0  0  0  0  0  0  0  0  0  0  0  0
    1.0427   -5.1664   -6.0721 C   0  0  0  0  0  0  0  0  0  0  0  0
    1.8741   -4.0532   -5.3935 C   0  0  0  0  0  0  0  0  0  0  0  0
    1.5909   -2.6871   -5.9843 C   0  0  0  0  0  0  0  0  0  0  0  0
    2.3951   -1.7664   -5.9619 O   0  0  0  0  0  0  0  0  0  0  0  0
    0.4025   -2.4767   -6.6980 N   0  0  0  0  0  0  0  0  0  0  0  0
   -0.6497   -3.4082   -6.7246 C   0  0  0  0  0  0  0  0  0  0  0  0
   -1.5938   -3.1454   -7.4558 O   0  0  0  0  0  0  0  0  0  0  0  0
   -1.3663   -6.0982   -4.0947 C   0  0  0  0  0  0  0  0  0  0  0  0
   -1.1268   -7.1876   -4.6046 O   0  0  0  0  0  0  0  0  0  0  0  0
   -0.8970    0.4128    3.5285 H   0  0  0  0  0  0  0  0  0  0  0  0
   -1.7334    1.7039    4.3751 H   0  0  0  0  0  0  0  0  0  0  0  0
    0.4857    1.0126    1.5010 H   0  0  0  0  0  0  0  0  0  0  0  0
    2.9516    4.6130    1.7762 H   0  0  0  0  0  0  0  0  0  0  0  0
    3.3153    6.7187    3.0194 H   0  0  0  0  0  0  0  0  0  0  0  0
    1.7412    8.9665   -0.3054 H   0  0  0  0  0  0  0  0  0  0  0  0
    2.8854    2.0815   -2.5337 H   0  0  0  0  0  0  0  0  0  0  0  0
   -0.3323    5.8613    0.4493 H   0  0  0  0  0  0  0  0  0  0  0  0
   -1.3659    7.3464    2.1433 H   0  0  0  0  0  0  0  0  0  0  0  0
   -1.8980    6.4731    4.4299 H   0  0  0  0  0  0  0  0  0  0  0  0
   -1.4387    4.0656    4.9726 H   0  0  0  0  0  0  0  0  0  0  0  0
    1.9116    0.4402    5.9317 H   0  0  0  0  0  0  0  0  0  0  0  0
    2.3924   -1.1806    4.2991 H   0  0  0  0  0  0  0  0  0  0  0  0
    1.3374   -0.3246    3.1693 H   0  0  0  0  0  0  0  0  0  0  0  0
   -0.5559   -1.3703    4.9125 H   0  0  0  0  0  0  0  0  0  0  0  0
    0.7203   -2.5900    5.0680 H   0  0  0  0  0  0  0  0  0  0  0  0
   -1.2254   -3.7884    4.0095 H   0  0  0  0  0  0  0  0  0  0  0  0
   -1.1428   -3.8563    2.2520 H   0  0  0  0  0  0  0  0  0  0  0  0
   -2.3630   -1.3820    3.5995 H   0  0  0  0  0  0  0  0  0  0  0  0
   -3.2928   -2.8722    3.4786 H   0  0  0  0  0  0  0  0  0  0  0  0
   -2.6143   -0.4444    0.2914 H   0  0  0  0  0  0  0  0  0  0  0  0
   -1.4024   -0.4813    1.5780 H   0  0  0  0  0  0  0  0  0  0  0  0
   -0.3060   -1.2040   -0.4201 H   0  0  0  0  0  0  0  0  0  0  0  0
   -0.5069   -2.6701    0.5318 H   0  0  0  0  0  0  0  0  0  0  0  0
   -1.7094   -1.9874   -2.0408 H   0  0  0  0  0  0  0  0  0  0  0  0
   -2.5440   -4.3268    0.6690 H   0  0  0  0  0  0  0  0  0  0  0  0
   -2.6446   -6.7842    0.3330 H   0  0  0  0  0  0  0  0  0  0  0  0
   -2.0956   -7.7765   -1.9147 H   0  0  0  0  0  0  0  0  0  0  0  0
   -0.9881   -5.4967   -6.7018 H   0  0  0  0  0  0  0  0  0  0  0  0
    1.3826   -5.2898   -7.1114 H   0  0  0  0  0  0  0  0  0  0  0  0
    1.1900   -6.1306   -5.5657 H   0  0  0  0  0  0  0  0  0  0  0  0
    1.6534   -4.0224   -4.3191 H   0  0  0  0  0  0  0  0  0  0  0  0
    2.9445   -4.2743   -5.4848 H   0  0  0  0  0  0  0  0  0  0  0  0
    0.2424   -1.5685   -7.1057 H   0  0  0  0  0  0  0  0  0  0  0  0
  1  2  2  0  0  0  0
  2  3  1  0  0  0  0
  2 28  1  0  0  0  0
  3  4  1  0  0  0  0
  3 57  1  0  0  0  0
  3 58  1  0  0  0  0
  4  5  1  0  0  0  0
  4 27  1  0  0  0  0
  5  6  2  0  0  0  0
  5 59  1  0  0  0  0
  6  7  1  0  0  0  0
  6 22  1  0  0  0  0
  7  8  2  0  0  0  0
  7 20  1  0  0  0  0
  8  9  1  0  0  0  0
  8 17  1  0  0  0  0
  9 10  2  0  0  0  0
  9 15  1  0  0  0  0
 10 11  1  0  0  0  0
 10 60  1  0  0  0  0
 11 12  2  0  0  0  0
 11 61  1  0  0  0  0
 12 13  1  0  0  0  0
 12 14  1  0  0  0  0
 14 15  2  0  0  0  0
 14 62  1  0  0  0  0
 15 16  1  0  0  0  0
 17 18  2  0  0  0  0
 17 19  1  0  0  0  0
 19 20  1  0  0  0  0
 19 63  1  0  0  0  0
 20 21  2  0  0  0  0
 22 23  2  0  0  0  0
 22 27  1  0  0  0  0
 23 24  1  0  0  0  0
 23 64  1  0  0  0  0
 24 25  2  0  0  0  0
 24 65  1  0  0  0  0
 25 26  1  0  0  0  0
 25 66  1  0  0  0  0
 26 27  2  0  0  0  0
 26 67  1  0  0  0  0
 28 29  1  0  0  0  0
 28 68  1  0  0  0  0
 29 30  1  0  0  0  0
 29 69  1  0  0  0  0
 29 70  1  0  0  0  0
 30 31  1  0  0  0  0
 30 71  1  0  0  0  0
 30 72  1  0  0  0  0
 31 32  1  0  0  0  0
 32 33  1  0  0  0  0
 32 73  1  0  0  0  0
 32 74  1  0  0  0  0
 33 34  1  0  0  0  0
 33 75  1  0  0  0  0
 33 76  1  0  0  0  0
 34 35  1  0  0  0  0
 35 36  1  0  0  0  0
 35 77  1  0  0  0  0
 35 78  1  0  0  0  0
 36 37  1  0  0  0  0
 36 79  1  0  0  0  0
 36 80  1  0  0  0  0
 37 38  1  0  0  0  0
 37 81  1  0  0  0  0
 38 39  2  0  0  0  0
 38 43  1  0  0  0  0
 39 40  1  0  0  0  0
 39 82  1  0  0  0  0
 40 41  2  0  0  0  0
 40 83  1  0  0  0  0
 41 42  1  0  0  0  0
 41 84  1  0  0  0  0
 42 43  2  0  0  0  0
 42 55  1  0  0  0  0
 43 44  1  0  0  0  0
 44 45  2  0  0  0  0
 44 46  1  0  0  0  0
 46 47  1  0  0  0  0
 46 55  1  0  0  0  0
 47 48  1  0  0  0  0
 47 53  1  0  0  0  0
 47 85  1  0  0  0  0
 48 49  1  0  0  0  0
 48 86  1  0  0  0  0
 48 87  1  0  0  0  0
 49 50  1  0  0  0  0
 49 88  1  0  0  0  0
 49 89  1  0  0  0  0
 50 51  2  0  0  0  0
 50 52  1  0  0  0  0
 52 53  1  0  0  0  0
 52 90  1  0  0  0  0
 53 54  2  0  0  0  0
 55 56  2  0  0  0  0
M  END
$$$$
protac3895RUN2
  chem.cr 07102519423D
protac3895RUN2
 90 96  0  0  0  0  0  0  0  0999 V2000
    2.1418    0.9886    5.4144 O   0  0  0  0  0  0  0  0  0  0  0  0
    1.3948    1.6666    4.7237 C   0  0  0  0  0  0  0  0  0  0  0  0
    1.2941    3.1683    4.8607 C   0  0  0  0  0  0  0  0  0  0  0  0
    1.8738    3.9455    3.7448 N   0  0  0  0  0  0  0  0  0  0  0  0
    1.7643    3.5242    2.4101 C   0  0  0  0  0  0  0  0  0  0  0  0
    1.8179    4.5719    1.5604 C   0  0  0  0  0  0  0  0  0  0  0  0
    1.8719    4.4947    0.1928 C   0  0  0  0  0  0  0  0  0  0  0  0
    2.2102    5.4014   -0.7635 C   0  0  0  0  0  0  0  0  0  0  0  0
    2.7735    6.6570   -0.5941 C   0  0  0  0  0  0  0  0  0  0  0  0
    4.0052    6.7664    0.0853 C   0  0  0  0  0  0  0  0  0  0  0  0
    4.6538    8.0095    0.2038 C   0  0  0  0  0  0  0  0  0  0  0  0
    4.0833    9.1534   -0.3664 C   0  0  0  0  0  0  0  0  0  0  0  0
    4.9075   10.7036   -0.2364 Cl  0  0  0  0  0  0  0  0  0  0  0  0
    2.8666    9.0610   -1.0580 C   0  0  0  0  0  0  0  0  0  0  0  0
    2.2097    7.8219   -1.1728 C   0  0  0  0  0  0  0  0  0  0  0  0
    0.6634    7.7637   -2.0222 Cl  0  0  0  0  0  0  0  0  0  0  0  0
    2.1306    4.8632   -1.9872 C   0  0  0  0  0  0  0  0  0  0  0  0
    2.3995    5.2699   -3.1088 O   0  0  0  0  0  0  0  0  0  0  0  0
    1.7324    3.5494   -1.8538 N   0  0  0  0  0  0  0  0  0  0  0  0
    1.5941    3.3529   -0.4858 C   0  0  0  0  0  0  0  0  0  0  0  0
    1.2305    2.2360   -0.1423 O   0  0  0  0  0  0  0  0  0  0  0  0
    1.8352    5.7078    2.3852 C   0  0  0  0  0  0  0  0  0  0  0  0
    1.5253    7.0548    2.1184 C   0  0  0  0  0  0  0  0  0  0  0  0
    1.5078    7.9885    3.1758 C   0  0  0  0  0  0  0  0  0  0  0  0
    1.7219    7.5762    4.5100 C   0  0  0  0  0  0  0  0  0  0  0  0
    1.8934    6.2100    4.8010 C   0  0  0  0  0  0  0  0  0  0  0  0
    1.9218    5.3123    3.7239 C   0  0  0  0  0  0  0  0  0  0  0  0
    0.3668    1.0219    4.0138 N   0  0  0  0  0  0  0  0  0  0  0  0
    0.0834   -0.4162    4.1722 C   0  0  0  0  0  0  0  0  0  0  0  0
   -0.9107   -0.9492    3.1221 C   0  0  0  0  0  0  0  0  0  0  0  0
   -1.4251   -2.1846    3.6383 O   0  0  0  0  0  0  0  0  0  0  0  0
   -2.3673   -2.8813    2.8021 C   0  0  0  0  0  0  0  0  0  0  0  0
   -1.6134   -3.7600    1.7778 C   0  0  0  0  0  0  0  0  0  0  0  0
   -1.0365   -4.8560    2.5105 O   0  0  0  0  0  0  0  0  0  0  0  0
   -0.2940   -5.8404    1.7723 C   0  0  0  0  0  0  0  0  0  0  0  0
   -1.2559   -6.8784    1.1537 C   0  0  0  0  0  0  0  0  0  0  0  0
   -1.7999   -6.4060   -0.1263 N   0  0  0  0  0  0  0  0  0  0  0  0
   -1.9114   -7.1533   -1.2932 C   0  0  0  0  0  0  0  0  0  0  0  0
   -1.8663   -8.5695   -1.3238 C   0  0  0  0  0  0  0  0  0  0  0  0
   -1.9884   -9.2774   -2.5476 C   0  0  0  0  0  0  0  0  0  0  0  0
   -2.1834   -8.5874   -3.7607 C   0  0  0  0  0  0  0  0  0  0  0  0
   -2.2652   -7.1862   -3.7119 C   0  0  0  0  0  0  0  0  0  0  0  0
   -2.1152   -6.4940   -2.5117 C   0  0  0  0  0  0  0  0  0  0  0  0
   -2.2348   -5.1488   -2.7765 C   0  0  0  0  0  0  0  0  0  0  0  0
   -1.8614   -4.2311   -2.0572 O   0  0  0  0  0  0  0  0  0  0  0  0
   -2.4731   -4.9886   -4.1566 N   0  0  0  0  0  0  0  0  0  0  0  0
   -3.0381   -3.7885   -4.8269 C   0  0  0  0  0  0  0  0  0  0  0  0
   -2.2057   -3.3905   -6.0670 C   0  0  0  0  0  0  0  0  0  0  0  0
   -0.8355   -2.8367   -5.6140 C   0  0  0  0  0  0  0  0  0  0  0  0
   -0.9633   -1.7589   -4.5564 C   0  0  0  0  0  0  0  0  0  0  0  0
   -0.1308   -0.8802   -4.3978 O   0  0  0  0  0  0  0  0  0  0  0  0
   -2.1531   -1.6460   -3.8257 N   0  0  0  0  0  0  0  0  0  0  0  0
   -3.1978   -2.5778   -3.9153 C   0  0  0  0  0  0  0  0  0  0  0  0
   -4.2446   -2.2886   -3.3518 O   0  0  0  0  0  0  0  0  0  0  0  0
   -2.5012   -6.2778   -4.7152 C   0  0  0  0  0  0  0  0  0  0  0  0
   -3.0621   -6.5031   -5.7852 O   0  0  0  0  0  0  0  0  0  0  0  0
    0.2460    3.4593    4.9911 H   0  0  0  0  0  0  0  0  0  0  0  0
    1.8243    3.4530    5.7763 H   0  0  0  0  0  0  0  0  0  0  0  0
    1.7595    2.4598    2.1970 H   0  0  0  0  0  0  0  0  0  0  0  0
    4.4673    5.8827    0.5182 H   0  0  0  0  0  0  0  0  0  0  0  0
    5.6085    8.0802    0.7172 H   0  0  0  0  0  0  0  0  0  0  0  0
    2.4317    9.9494   -1.5040 H   0  0  0  0  0  0  0  0  0  0  0  0
    1.4083    2.9392   -2.5905 H   0  0  0  0  0  0  0  0  0  0  0  0
    1.2278    7.3800    1.1343 H   0  0  0  0  0  0  0  0  0  0  0  0
    1.2840    9.0314    2.9641 H   0  0  0  0  0  0  0  0  0  0  0  0
    1.6853    8.3043    5.3178 H   0  0  0  0  0  0  0  0  0  0  0  0
    1.9657    5.8624    5.8279 H   0  0  0  0  0  0  0  0  0  0  0  0
   -0.2630    1.5834    3.4552 H   0  0  0  0  0  0  0  0  0  0  0  0
   -0.3233   -0.5860    5.1792 H   0  0  0  0  0  0  0  0  0  0  0  0
    1.0183   -0.9895    4.1010 H   0  0  0  0  0  0  0  0  0  0  0  0
   -0.4015   -1.0968    2.1631 H   0  0  0  0  0  0  0  0  0  0  0  0
   -1.7306   -0.2327    2.9811 H   0  0  0  0  0  0  0  0  0  0  0  0
   -3.0246   -2.1734    2.2808 H   0  0  0  0  0  0  0  0  0  0  0  0
   -3.0004   -3.5332    3.4197 H   0  0  0  0  0  0  0  0  0  0  0  0
   -0.8437   -3.1719    1.2610 H   0  0  0  0  0  0  0  0  0  0  0  0
   -2.3367   -4.1199    1.0358 H   0  0  0  0  0  0  0  0  0  0  0  0
    0.3429   -5.3825    1.0030 H   0  0  0  0  0  0  0  0  0  0  0  0
    0.3642   -6.3725    2.4692 H   0  0  0  0  0  0  0  0  0  0  0  0
   -0.6945   -7.8055    0.9990 H   0  0  0  0  0  0  0  0  0  0  0  0
   -2.0674   -7.0906    1.8611 H   0  0  0  0  0  0  0  0  0  0  0  0
   -1.8772   -5.4035   -0.2569 H   0  0  0  0  0  0  0  0  0  0  0  0
   -1.7545   -9.1328   -0.4032 H   0  0  0  0  0  0  0  0  0  0  0  0
   -1.9485  -10.3648   -2.5501 H   0  0  0  0  0  0  0  0  0  0  0  0
   -2.2749   -9.1149   -4.7071 H   0  0  0  0  0  0  0  0  0  0  0  0
   -4.0452   -4.0588   -5.1689 H   0  0  0  0  0  0  0  0  0  0  0  0
   -2.7486   -2.6174   -6.6299 H   0  0  0  0  0  0  0  0  0  0  0  0
   -2.0791   -4.2458   -6.7448 H   0  0  0  0  0  0  0  0  0  0  0  0
   -0.2258   -3.6538   -5.2102 H   0  0  0  0  0  0  0  0  0  0  0  0
   -0.2914   -2.4351   -6.4773 H   0  0  0  0  0  0  0  0  0  0  0  0
   -2.2433   -0.8840   -3.1703 H   0  0  0  0  0  0  0  0  0  0  0  0
  1  2  2  0  0  0  0
  2  3  1  0  0  0  0
  2 28  1  0  0  0  0
  3  4  1  0  0  0  0
  3 57  1  0  0  0  0
  3 58  1  0  0  0  0
  4  5  1  0  0  0  0
  4 27  1  0  0  0  0
  5  6  2  0  0  0  0
  5 59  1  0  0  0  0
  6  7  1  0  0  0  0
  6 22  1  0  0  0  0
  7  8  2  0  0  0  0
  7 20  1  0  0  0  0
  8  9  1  0  0  0  0
  8 17  1  0  0  0  0
  9 10  2  0  0  0  0
  9 15  1  0  0  0  0
 10 11  1  0  0  0  0
 10 60  1  0  0  0  0
 11 12  2  0  0  0  0
 11 61  1  0  0  0  0
 12 13  1  0  0  0  0
 12 14  1  0  0  0  0
 14 15  2  0  0  0  0
 14 62  1  0  0  0  0
 15 16  1  0  0  0  0
 17 18  2  0  0  0  0
 17 19  1  0  0  0  0
 19 20  1  0  0  0  0
 19 63  1  0  0  0  0
 20 21  2  0  0  0  0
 22 23  2  0  0  0  0
 22 27  1  0  0  0  0
 23 24  1  0  0  0  0
 23 64  1  0  0  0  0
 24 25  2  0  0  0  0
 24 65  1  0  0  0  0
 25 26  1  0  0  0  0
 25 66  1  0  0  0  0
 26 27  2  0  0  0  0
 26 67  1  0  0  0  0
 28 29  1  0  0  0  0
 28 68  1  0  0  0  0
 29 30  1  0  0  0  0
 29 69  1  0  0  0  0
 29 70  1  0  0  0  0
 30 31  1  0  0  0  0
 30 71  1  0  0  0  0
 30 72  1  0  0  0  0
 31 32  1  0  0  0  0
 32 33  1  0  0  0  0
 32 73  1  0  0  0  0
 32 74  1  0  0  0  0
 33 34  1  0  0  0  0
 33 75  1  0  0  0  0
 33 76  1  0  0  0  0
 34 35  1  0  0  0  0
 35 36  1  0  0  0  0
 35 77  1  0  0  0  0
 35 78  1  0  0  0  0
 36 37  1  0  0  0  0
 36 79  1  0  0  0  0
 36 80  1  0  0  0  0
 37 38  1  0  0  0  0
 37 81  1  0  0  0  0
 38 39  2  0  0  0  0
 38 43  1  0  0  0  0
 39 40  1  0  0  0  0
 39 82  1  0  0  0  0
 40 41  2  0  0  0  0
 40 83  1  0  0  0  0
 41 42  1  0  0  0  0
 41 84  1  0  0  0  0
 42 43  2  0  0  0  0
 42 55  1  0  0  0  0
 43 44  1  0  0  0  0
 44 45  2  0  0  0  0
 44 46  1  0  0  0  0
 46 47  1  0  0  0  0
 46 55  1  0  0  0  0
 47 48  1  0  0  0  0
 47 53  1  0  0  0  0
 47 85  1  0  0  0  0
 48 49  1  0  0  0  0
 48 86  1  0  0  0  0
 48 87  1  0  0  0  0
 49 50  1  0  0  0  0
 49 88  1  0  0  0  0
 49 89  1  0  0  0  0
 50 51  2  0  0  0  0
 50 52  1  0  0  0  0
 52 53  1  0  0  0  0
 52 90  1  0  0  0  0
 53 54  2  0  0  0  0
 55 56  2  0  0  0  0
M  END
$$$$
protac3895RUN2
  chem.cr 07102519423D
protac3895RUN2
 90 96  0  0  0  0  0  0  0  0999 V2000
    1.7572    0.3247    4.9563 O   0  0  0  0  0  0  0  0  0  0  0  0
    1.3257    1.4042    4.5760 C   0  0  0  0  0  0  0  0  0  0  0  0
    1.9497    2.7292    4.9575 C   0  0  0  0  0  0  0  0  0  0  0  0
    2.0633    3.7121    3.8549 N   0  0  0  0  0  0  0  0  0  0  0  0
    2.1885    3.3129    2.5155 C   0  0  0  0  0  0  0  0  0  0  0  0
    1.8050    4.3033    1.6833 C   0  0  0  0  0  0  0  0  0  0  0  0
    1.9317    4.3039    0.3214 C   0  0  0  0  0  0  0  0  0  0  0  0
    1.9048    5.3136   -0.5863 C   0  0  0  0  0  0  0  0  0  0  0  0
    1.9122    6.6755   -0.3263 C   0  0  0  0  0  0  0  0  0  0  0  0
    2.9363    7.2003    0.4894 C   0  0  0  0  0  0  0  0  0  0  0  0
    3.0091    8.5774    0.7579 C   0  0  0  0  0  0  0  0  0  0  0  0
    2.0633    9.4485    0.1993 C   0  0  0  0  0  0  0  0  0  0  0  0
    2.1554   11.1729    0.5333 Cl  0  0  0  0  0  0  0  0  0  0  0  0
    1.0425    8.9449   -0.6208 C   0  0  0  0  0  0  0  0  0  0  0  0
    0.9640    7.5665   -0.8911 C   0  0  0  0  0  0  0  0  0  0  0  0
   -0.3815    6.9822   -1.8737 Cl  0  0  0  0  0  0  0  0  0  0  0  0
    2.0953    4.8460   -1.8271 C   0  0  0  0  0  0  0  0  0  0  0  0
    2.2148    5.3800   -2.9219 O   0  0  0  0  0  0  0  0  0  0  0  0
    2.2712    3.4764   -1.7572 N   0  0  0  0  0  0  0  0  0  0  0  0
    2.1676    3.1819   -0.4023 C   0  0  0  0  0  0  0  0  0  0  0  0
    2.2703    1.9983   -0.1033 O   0  0  0  0  0  0  0  0  0  0  0  0
    1.2990    5.3129    2.5169 C   0  0  0  0  0  0  0  0  0  0  0  0
    0.4282    6.3863    2.2478 C   0  0  0  0  0  0  0  0  0  0  0  0
   -0.0287    7.1968    3.3084 C   0  0  0  0  0  0  0  0  0  0  0  0
    0.3091    6.8959    4.6447 C   0  0  0  0  0  0  0  0  0  0  0  0
    1.0605    5.7424    4.9326 C   0  0  0  0  0  0  0  0  0  0  0  0
    1.5071    4.9645    3.8542 C   0  0  0  0  0  0  0  0  0  0  0  0
    0.1745    1.4523    3.7733 N   0  0  0  0  0  0  0  0  0  0  0  0
   -0.4478    0.2720    3.1523 C   0  0  0  0  0  0  0  0  0  0  0  0
   -0.1715    0.2050    1.6407 C   0  0  0  0  0  0  0  0  0  0  0  0
   -1.0442   -0.8083    1.1184 O   0  0  0  0  0  0  0  0  0  0  0  0
   -0.9704   -1.0742   -0.2966 C   0  0  0  0  0  0  0  0  0  0  0  0
    0.3193   -1.8565   -0.6329 C   0  0  0  0  0  0  0  0  0  0  0  0
    0.2469   -3.1165    0.0474 O   0  0  0  0  0  0  0  0  0  0  0  0
    1.2311   -4.0872   -0.3268 C   0  0  0  0  0  0  0  0  0  0  0  0
    0.9881   -5.3400    0.5410 C   0  0  0  0  0  0  0  0  0  0  0  0
   -0.4021   -5.7892    0.3741 N   0  0  0  0  0  0  0  0  0  0  0  0
   -0.7231   -6.9306   -0.3464 C   0  0  0  0  0  0  0  0  0  0  0  0
   -0.1172   -8.1799   -0.0861 C   0  0  0  0  0  0  0  0  0  0  0  0
   -0.4396   -9.3203   -0.8624 C   0  0  0  0  0  0  0  0  0  0  0  0
   -1.3558   -9.2243   -1.9303 C   0  0  0  0  0  0  0  0  0  0  0  0
   -1.9504   -7.9819   -2.1746 C   0  0  0  0  0  0  0  0  0  0  0  0
   -1.6553   -6.8701   -1.3881 C   0  0  0  0  0  0  0  0  0  0  0  0
   -2.3622   -5.8035   -1.8850 C   0  0  0  0  0  0  0  0  0  0  0  0
   -2.4269   -4.6661   -1.4388 O   0  0  0  0  0  0  0  0  0  0  0  0
   -3.0616   -6.2279   -3.0235 N   0  0  0  0  0  0  0  0  0  0  0  0
   -3.6187   -5.3671   -4.0895 C   0  0  0  0  0  0  0  0  0  0  0  0
   -2.5063   -4.8370   -5.0255 C   0  0  0  0  0  0  0  0  0  0  0  0
   -1.7656   -3.6371   -4.3898 C   0  0  0  0  0  0  0  0  0  0  0  0
   -2.7172   -2.5792   -3.8710 C   0  0  0  0  0  0  0  0  0  0  0  0
   -2.4285   -1.3928   -3.8158 O   0  0  0  0  0  0  0  0  0  0  0  0
   -4.0395   -2.9260   -3.5634 N   0  0  0  0  0  0  0  0  0  0  0  0
   -4.5048   -4.2500   -3.5518 C   0  0  0  0  0  0  0  0  0  0  0  0
   -5.6935   -4.4027   -3.3057 O   0  0  0  0  0  0  0  0  0  0  0  0
   -2.8281   -7.6014   -3.1635 C   0  0  0  0  0  0  0  0  0  0  0  0
   -3.0544   -8.1855   -4.2177 O   0  0  0  0  0  0  0  0  0  0  0  0
    1.3587    3.1628    5.7700 H   0  0  0  0  0  0  0  0  0  0  0  0
    2.9545    2.5377    5.3505 H   0  0  0  0  0  0  0  0  0  0  0  0
    2.6413    2.3466    2.2956 H   0  0  0  0  0  0  0  0  0  0  0  0
    3.6749    6.5318    0.9236 H   0  0  0  0  0  0  0  0  0  0  0  0
    3.7958    8.9664    1.3983 H   0  0  0  0  0  0  0  0  0  0  0  0
    0.3070    9.6226   -1.0450 H   0  0  0  0  0  0  0  0  0  0  0  0
    2.0658    2.8302   -2.5042 H   0  0  0  0  0  0  0  0  0  0  0  0
    0.0488    6.5696    1.2536 H   0  0  0  0  0  0  0  0  0  0  0  0
   -0.6809    8.0406    3.0947 H   0  0  0  0  0  0  0  0  0  0  0  0
   -0.0630    7.5214    5.4523 H   0  0  0  0  0  0  0  0  0  0  0  0
    1.2606    5.4560    5.9601 H   0  0  0  0  0  0  0  0  0  0  0  0
   -0.1407    2.3689    3.4758 H   0  0  0  0  0  0  0  0  0  0  0  0
   -1.5325    0.3143    3.3161 H   0  0  0  0  0  0  0  0  0  0  0  0
   -0.0792   -0.6484    3.6253 H   0  0  0  0  0  0  0  0  0  0  0  0
    0.8851   -0.0388    1.4704 H   0  0  0  0  0  0  0  0  0  0  0  0
   -0.3892    1.1752    1.1746 H   0  0  0  0  0  0  0  0  0  0  0  0
   -0.9990   -0.1392   -0.8719 H   0  0  0  0  0  0  0  0  0  0  0  0
   -1.8321   -1.6829   -0.6075 H   0  0  0  0  0  0  0  0  0  0  0  0
    1.2113   -1.2921   -0.3332 H   0  0  0  0  0  0  0  0  0  0  0  0
    0.3560   -2.0106   -1.7196 H   0  0  0  0  0  0  0  0  0  0  0  0
    1.1214   -4.3519   -1.3866 H   0  0  0  0  0  0  0  0  0  0  0  0
    2.2458   -3.7030   -0.1611 H   0  0  0  0  0  0  0  0  0  0  0  0
    1.6925   -6.1276    0.2501 H   0  0  0  0  0  0  0  0  0  0  0  0
    1.1710   -5.0881    1.5936 H   0  0  0  0  0  0  0  0  0  0  0  0
   -1.0711   -5.0302    0.2624 H   0  0  0  0  0  0  0  0  0  0  0  0
    0.5938   -8.2729    0.7294 H   0  0  0  0  0  0  0  0  0  0  0  0
    0.0307  -10.2749   -0.6429 H   0  0  0  0  0  0  0  0  0  0  0  0
   -1.5959  -10.0847   -2.5488 H   0  0  0  0  0  0  0  0  0  0  0  0
   -4.2776   -6.0039   -4.6951 H   0  0  0  0  0  0  0  0  0  0  0  0
   -2.9625   -4.5139   -5.9710 H   0  0  0  0  0  0  0  0  0  0  0  0
   -1.8017   -5.6434   -5.2716 H   0  0  0  0  0  0  0  0  0  0  0  0
   -1.1274   -3.9751   -3.5642 H   0  0  0  0  0  0  0  0  0  0  0  0
   -1.0914   -3.1839   -5.1267 H   0  0  0  0  0  0  0  0  0  0  0  0
   -4.6662   -2.2005   -3.2492 H   0  0  0  0  0  0  0  0  0  0  0  0
  1  2  2  0  0  0  0
  2  3  1  0  0  0  0
  2 28  1  0  0  0  0
  3  4  1  0  0  0  0
  3 57  1  0  0  0  0
  3 58  1  0  0  0  0
  4  5  1  0  0  0  0
  4 27  1  0  0  0  0
  5  6  2  0  0  0  0
  5 59  1  0  0  0  0
  6  7  1  0  0  0  0
  6 22  1  0  0  0  0
  7  8  2  0  0  0  0
  7 20  1  0  0  0  0
  8  9  1  0  0  0  0
  8 17  1  0  0  0  0
  9 10  2  0  0  0  0
  9 15  1  0  0  0  0
 10 11  1  0  0  0  0
 10 60  1  0  0  0  0
 11 12  2  0  0  0  0
 11 61  1  0  0  0  0
 12 13  1  0  0  0  0
 12 14  1  0  0  0  0
 14 15  2  0  0  0  0
 14 62  1  0  0  0  0
 15 16  1  0  0  0  0
 17 18  2  0  0  0  0
 17 19  1  0  0  0  0
 19 20  1  0  0  0  0
 19 63  1  0  0  0  0
 20 21  2  0  0  0  0
 22 23  2  0  0  0  0
 22 27  1  0  0  0  0
 23 24  1  0  0  0  0
 23 64  1  0  0  0  0
 24 25  2  0  0  0  0
 24 65  1  0  0  0  0
 25 26  1  0  0  0  0
 25 66  1  0  0  0  0
 26 27  2  0  0  0  0
 26 67  1  0  0  0  0
 28 29  1  0  0  0  0
 28 68  1  0  0  0  0
 29 30  1  0  0  0  0
 29 69  1  0  0  0  0
 29 70  1  0  0  0  0
 30 31  1  0  0  0  0
 30 71  1  0  0  0  0
 30 72  1  0  0  0  0
 31 32  1  0  0  0  0
 32 33  1  0  0  0  0
 32 73  1  0  0  0  0
 32 74  1  0  0  0  0
 33 34  1  0  0  0  0
 33 75  1  0  0  0  0
 33 76  1  0  0  0  0
 34 35  1  0  0  0  0
 35 36  1  0  0  0  0
 35 77  1  0  0  0  0
 35 78  1  0  0  0  0
 36 37  1  0  0  0  0
 36 79  1  0  0  0  0
 36 80  1  0  0  0  0
 37 38  1  0  0  0  0
 37 81  1  0  0  0  0
 38 39  2  0  0  0  0
 38 43  1  0  0  0  0
 39 40  1  0  0  0  0
 39 82  1  0  0  0  0
 40 41  2  0  0  0  0
 40 83  1  0  0  0  0
 41 42  1  0  0  0  0
 41 84  1  0  0  0  0
 42 43  2  0  0  0  0
 42 55  1  0  0  0  0
 43 44  1  0  0  0  0
 44 45  2  0  0  0  0
 44 46  1  0  0  0  0
 46 47  1  0  0  0  0
 46 55  1  0  0  0  0
 47 48  1  0  0  0  0
 47 53  1  0  0  0  0
 47 85  1  0  0  0  0
 48 49  1  0  0  0  0
 48 86  1  0  0  0  0
 48 87  1  0  0  0  0
 49 50  1  0  0  0  0
 49 88  1  0  0  0  0
 49 89  1  0  0  0  0
 50 51  2  0  0  0  0
 50 52  1  0  0  0  0
 52 53  1  0  0  0  0
 52 90  1  0  0  0  0
 53 54  2  0  0  0  0
 55 56  2  0  0  0  0
M  END
$$$$
protac3895RUN2
  chem.cr 07102519423D
protac3895RUN2
 90 96  0  0  0  0  0  0  0  0999 V2000
    2.4718    1.8524    4.4093 O   0  0  0  0  0  0  0  0  0  0  0  0
    1.6588    2.6795    4.0241 C   0  0  0  0  0  0  0  0  0  0  0  0
    1.7119    4.1380    4.4158 C   0  0  0  0  0  0  0  0  0  0  0  0
    1.6550    5.0873    3.2872 N   0  0  0  0  0  0  0  0  0  0  0  0
    2.5378    4.9529    2.2058 C   0  0  0  0  0  0  0  0  0  0  0  0
    2.7911    6.1500    1.6291 C   0  0  0  0  0  0  0  0  0  0  0  0
    3.4568    6.3514    0.4482 C   0  0  0  0  0  0  0  0  0  0  0  0
    3.5518    7.4311   -0.3786 C   0  0  0  0  0  0  0  0  0  0  0  0
    2.8810    8.6383   -0.3007 C   0  0  0  0  0  0  0  0  0  0  0  0
    3.6302    9.8352   -0.2654 C   0  0  0  0  0  0  0  0  0  0  0  0
    2.9843   11.0804   -0.1796 C   0  0  0  0  0  0  0  0  0  0  0  0
    1.5831   11.1417   -0.1541 C   0  0  0  0  0  0  0  0  0  0  0  0
    0.7764   12.6990   -0.0285 Cl  0  0  0  0  0  0  0  0  0  0  0  0
    0.8254    9.9637   -0.2411 C   0  0  0  0  0  0  0  0  0  0  0  0
    1.4668    8.7154   -0.3274 C   0  0  0  0  0  0  0  0  0  0  0  0
    0.4652    7.2717   -0.4955 Cl  0  0  0  0  0  0  0  0  0  0  0  0
    4.3059    7.1552   -1.4467 C   0  0  0  0  0  0  0  0  0  0  0  0
    4.6070    7.7913   -2.4500 O   0  0  0  0  0  0  0  0  0  0  0  0
    4.7628    5.8555   -1.3422 N   0  0  0  0  0  0  0  0  0  0  0  0
    4.1635    5.3800   -0.1821 C   0  0  0  0  0  0  0  0  0  0  0  0
    4.3885    4.2033    0.0801 O   0  0  0  0  0  0  0  0  0  0  0  0
    2.1771    7.0922    2.4706 C   0  0  0  0  0  0  0  0  0  0  0  0
    2.4034    8.4699    2.6468 C   0  0  0  0  0  0  0  0  0  0  0  0
    1.6993    9.1720    3.6471 C   0  0  0  0  0  0  0  0  0  0  0  0
    0.8349    8.4921    4.5296 C   0  0  0  0  0  0  0  0  0  0  0  0
    0.7226    7.0922    4.4587 C   0  0  0  0  0  0  0  0  0  0  0  0
    1.4268    6.4278    3.4450 C   0  0  0  0  0  0  0  0  0  0  0  0
    0.5121    2.2473    3.3398 N   0  0  0  0  0  0  0  0  0  0  0  0
   -0.0789    0.9092    3.5291 C   0  0  0  0  0  0  0  0  0  0  0  0
   -0.3001    0.1525    2.2086 C   0  0  0  0  0  0  0  0  0  0  0  0
   -1.0593   -1.0190    2.5461 O   0  0  0  0  0  0  0  0  0  0  0  0
   -1.3430   -1.9429    1.4800 C   0  0  0  0  0  0  0  0  0  0  0  0
   -0.0387   -2.6567    1.0639 C   0  0  0  0  0  0  0  0  0  0  0  0
   -0.3548   -4.0334    0.8077 O   0  0  0  0  0  0  0  0  0  0  0  0
    0.7587   -4.8382    0.4025 C   0  0  0  0  0  0  0  0  0  0  0  0
    0.3536   -6.3180    0.5404 C   0  0  0  0  0  0  0  0  0  0  0  0
   -0.6225   -6.7240   -0.4844 N   0  0  0  0  0  0  0  0  0  0  0  0
   -0.9016   -8.0473   -0.8199 C   0  0  0  0  0  0  0  0  0  0  0  0
   -0.3262   -9.1424   -0.1248 C   0  0  0  0  0  0  0  0  0  0  0  0
   -0.6163  -10.4782   -0.4904 C   0  0  0  0  0  0  0  0  0  0  0  0
   -1.4840  -10.7551   -1.5630 C   0  0  0  0  0  0  0  0  0  0  0  0
   -2.0504   -9.6697   -2.2404 C   0  0  0  0  0  0  0  0  0  0  0  0
   -1.7782   -8.3515   -1.8748 C   0  0  0  0  0  0  0  0  0  0  0  0
   -2.5021   -7.5263   -2.7097 C   0  0  0  0  0  0  0  0  0  0  0  0
   -2.3483   -6.3243   -2.8877 O   0  0  0  0  0  0  0  0  0  0  0  0
   -3.2146   -8.3258   -3.6235 N   0  0  0  0  0  0  0  0  0  0  0  0
   -4.4539   -7.9368   -4.3335 C   0  0  0  0  0  0  0  0  0  0  0  0
   -4.1716   -7.5539   -5.8050 C   0  0  0  0  0  0  0  0  0  0  0  0
   -3.7350   -6.0776   -5.9148 C   0  0  0  0  0  0  0  0  0  0  0  0
   -4.7371   -5.1545   -5.2586 C   0  0  0  0  0  0  0  0  0  0  0  0
   -5.0799   -4.0825   -5.7340 O   0  0  0  0  0  0  0  0  0  0  0  0
   -5.4265   -5.5989   -4.1249 N   0  0  0  0  0  0  0  0  0  0  0  0
   -5.2593   -6.8809   -3.5809 C   0  0  0  0  0  0  0  0  0  0  0  0
   -5.9329   -7.1391   -2.5932 O   0  0  0  0  0  0  0  0  0  0  0  0
   -2.9204   -9.6549   -3.3032 C   0  0  0  0  0  0  0  0  0  0  0  0
   -3.3636  -10.6040   -3.9399 O   0  0  0  0  0  0  0  0  0  0  0  0
    0.8806    4.3410    5.0977 H   0  0  0  0  0  0  0  0  0  0  0  0
    2.6414    4.3187    4.9702 H   0  0  0  0  0  0  0  0  0  0  0  0
    2.8222    3.9505    1.8930 H   0  0  0  0  0  0  0  0  0  0  0  0
    4.7168    9.7912   -0.2838 H   0  0  0  0  0  0  0  0  0  0  0  0
    3.5677   11.9957   -0.1313 H   0  0  0  0  0  0  0  0  0  0  0  0
   -0.2598   10.0156   -0.2428 H   0  0  0  0  0  0  0  0  0  0  0  0
    4.9807    5.2709   -2.1335 H   0  0  0  0  0  0  0  0  0  0  0  0
    3.1527    8.9977    2.0796 H   0  0  0  0  0  0  0  0  0  0  0  0
    1.8544   10.2428    3.7551 H   0  0  0  0  0  0  0  0  0  0  0  0
    0.3124    9.0441    5.3057 H   0  0  0  0  0  0  0  0  0  0  0  0
    0.1371    6.5471    5.1908 H   0  0  0  0  0  0  0  0  0  0  0  0
   -0.0223    2.9470    2.8376 H   0  0  0  0  0  0  0  0  0  0  0  0
   -1.0434    1.0194    4.0412 H   0  0  0  0  0  0  0  0  0  0  0  0
    0.5646    0.2966    4.1764 H   0  0  0  0  0  0  0  0  0  0  0  0
    0.6701   -0.1074    1.7640 H   0  0  0  0  0  0  0  0  0  0  0  0
   -0.8558    0.7821    1.5013 H   0  0  0  0  0  0  0  0  0  0  0  0
   -1.7902   -1.4360    0.6162 H   0  0  0  0  0  0  0  0  0  0  0  0
   -2.0641   -2.6931    1.8309 H   0  0  0  0  0  0  0  0  0  0  0  0
    0.6887   -2.5869    1.8837 H   0  0  0  0  0  0  0  0  0  0  0  0
    0.3889   -2.1712    0.1765 H   0  0  0  0  0  0  0  0  0  0  0  0
    1.0570   -4.6141   -0.6302 H   0  0  0  0  0  0  0  0  0  0  0  0
    1.6209   -4.6493    1.0558 H   0  0  0  0  0  0  0  0  0  0  0  0
    1.2615   -6.9270    0.4489 H   0  0  0  0  0  0  0  0  0  0  0  0
   -0.0684   -6.4823    1.5411 H   0  0  0  0  0  0  0  0  0  0  0  0
   -1.1032   -6.0001   -1.0134 H   0  0  0  0  0  0  0  0  0  0  0  0
    0.3477   -8.9719    0.7074 H   0  0  0  0  0  0  0  0  0  0  0  0
   -0.1664  -11.2967    0.0665 H   0  0  0  0  0  0  0  0  0  0  0  0
   -1.7152  -11.7768   -1.8531 H   0  0  0  0  0  0  0  0  0  0  0  0
   -5.0950   -8.8279   -4.3571 H   0  0  0  0  0  0  0  0  0  0  0  0
   -5.0894   -7.6970   -6.3936 H   0  0  0  0  0  0  0  0  0  0  0  0
   -3.4101   -8.2213   -6.2315 H   0  0  0  0  0  0  0  0  0  0  0  0
   -2.7548   -5.9325   -5.4448 H   0  0  0  0  0  0  0  0  0  0  0  0
   -3.6208   -5.7986   -6.9693 H   0  0  0  0  0  0  0  0  0  0  0  0
   -6.0673   -4.9655   -3.6724 H   0  0  0  0  0  0  0  0  0  0  0  0
  1  2  2  0  0  0  0
  2  3  1  0  0  0  0
  2 28  1  0  0  0  0
  3  4  1  0  0  0  0
  3 57  1  0  0  0  0
  3 58  1  0  0  0  0
  4  5  1  0  0  0  0
  4 27  1  0  0  0  0
  5  6  2  0  0  0  0
  5 59  1  0  0  0  0
  6  7  1  0  0  0  0
  6 22  1  0  0  0  0
  7  8  2  0  0  0  0
  7 20  1  0  0  0  0
  8  9  1  0  0  0  0
  8 17  1  0  0  0  0
  9 10  2  0  0  0  0
  9 15  1  0  0  0  0
 10 11  1  0  0  0  0
 10 60  1  0  0  0  0
 11 12  2  0  0  0  0
 11 61  1  0  0  0  0
 12 13  1  0  0  0  0
 12 14  1  0  0  0  0
 14 15  2  0  0  0  0
 14 62  1  0  0  0  0
 15 16  1  0  0  0  0
 17 18  2  0  0  0  0
 17 19  1  0  0  0  0
 19 20  1  0  0  0  0
 19 63  1  0  0  0  0
 20 21  2  0  0  0  0
 22 23  2  0  0  0  0
 22 27  1  0  0  0  0
 23 24  1  0  0  0  0
 23 64  1  0  0  0  0
 24 25  2  0  0  0  0
 24 65  1  0  0  0  0
 25 26  1  0  0  0  0
 25 66  1  0  0  0  0
 26 27  2  0  0  0  0
 26 67  1  0  0  0  0
 28 29  1  0  0  0  0
 28 68  1  0  0  0  0
 29 30  1  0  0  0  0
 29 69  1  0  0  0  0
 29 70  1  0  0  0  0
 30 31  1  0  0  0  0
 30 71  1  0  0  0  0
 30 72  1  0  0  0  0
 31 32  1  0  0  0  0
 32 33  1  0  0  0  0
 32 73  1  0  0  0  0
 32 74  1  0  0  0  0
 33 34  1  0  0  0  0
 33 75  1  0  0  0  0
 33 76  1  0  0  0  0
 34 35  1  0  0  0  0
 35 36  1  0  0  0  0
 35 77  1  0  0  0  0
 35 78  1  0  0  0  0
 36 37  1  0  0  0  0
 36 79  1  0  0  0  0
 36 80  1  0  0  0  0
 37 38  1  0  0  0  0
 37 81  1  0  0  0  0
 38 39  2  0  0  0  0
 38 43  1  0  0  0  0
 39 40  1  0  0  0  0
 39 82  1  0  0  0  0
 40 41  2  0  0  0  0
 40 83  1  0  0  0  0
 41 42  1  0  0  0  0
 41 84  1  0  0  0  0
 42 43  2  0  0  0  0
 42 55  1  0  0  0  0
 43 44  1  0  0  0  0
 44 45  2  0  0  0  0
 44 46  1  0  0  0  0
 46 47  1  0  0  0  0
 46 55  1  0  0  0  0
 47 48  1  0  0  0  0
 47 53  1  0  0  0  0
 47 85  1  0  0  0  0
 48 49  1  0  0  0  0
 48 86  1  0  0  0  0
 48 87  1  0  0  0  0
 49 50  1  0  0  0  0
 49 88  1  0  0  0  0
 49 89  1  0  0  0  0
 50 51  2  0  0  0  0
 50 52  1  0  0  0  0
 52 53  1  0  0  0  0
 52 90  1  0  0  0  0
 53 54  2  0  0  0  0
 55 56  2  0  0  0  0
M  END
$$$$
protac3895RUN2
  chem.cr 07102519423D
protac3895RUN2
 90 96  0  0  0  0  0  0  0  0999 V2000
    3.0079    1.9413    1.3001 O   0  0  0  0  0  0  0  0  0  0  0  0
    2.0932    2.4481    1.9352 C   0  0  0  0  0  0  0  0  0  0  0  0
    1.3397    3.6676    1.4645 C   0  0  0  0  0  0  0  0  0  0  0  0
    1.9375    4.9293    1.9327 N   0  0  0  0  0  0  0  0  0  0  0  0
    3.1098    5.4071    1.3384 C   0  0  0  0  0  0  0  0  0  0  0  0
    3.1330    6.7605    1.3115 C   0  0  0  0  0  0  0  0  0  0  0  0
    4.0547    7.5292    0.6409 C   0  0  0  0  0  0  0  0  0  0  0  0
    4.1069    8.8522    0.3199 C   0  0  0  0  0  0  0  0  0  0  0  0
    3.1592    9.8405    0.5159 C   0  0  0  0  0  0  0  0  0  0  0  0
    3.5143   10.9827    1.2661 C   0  0  0  0  0  0  0  0  0  0  0  0
    2.5928   12.0240    1.4671 C   0  0  0  0  0  0  0  0  0  0  0  0
    1.3126   11.9425    0.8981 C   0  0  0  0  0  0  0  0  0  0  0  0
    0.1582   13.2460    1.1451 Cl  0  0  0  0  0  0  0  0  0  0  0  0
    0.9599   10.8325    0.1149 C   0  0  0  0  0  0  0  0  0  0  0  0
    1.8794    9.7871   -0.0887 C   0  0  0  0  0  0  0  0  0  0  0  0
    1.4116    8.4412   -1.1282 Cl  0  0  0  0  0  0  0  0  0  0  0  0
    5.2134    9.1373   -0.3765 C   0  0  0  0  0  0  0  0  0  0  0  0
    5.6338   10.1573   -0.9056 O   0  0  0  0  0  0  0  0  0  0  0  0
    5.9585    7.9862   -0.5179 N   0  0  0  0  0  0  0  0  0  0  0  0
    5.1773    7.0054    0.0821 C   0  0  0  0  0  0  0  0  0  0  0  0
    5.6388    5.8721    0.0184 O   0  0  0  0  0  0  0  0  0  0  0  0
    1.9912    7.1519    2.0389 C   0  0  0  0  0  0  0  0  0  0  0  0
    1.6357    8.3640    2.6650 C   0  0  0  0  0  0  0  0  0  0  0  0
    0.4338    8.4496    3.4000 C   0  0  0  0  0  0  0  0  0  0  0  0
   -0.3723    7.3106    3.6028 C   0  0  0  0  0  0  0  0  0  0  0  0
    0.0509    6.0628    3.1136 C   0  0  0  0  0  0  0  0  0  0  0  0
    1.2278    6.0195    2.3532 C   0  0  0  0  0  0  0  0  0  0  0  0
    1.5786    1.7779    3.0573 N   0  0  0  0  0  0  0  0  0  0  0  0
    1.8903    0.3696    3.3660 C   0  0  0  0  0  0  0  0  0  0  0  0
    1.3412   -0.5890    2.2895 C   0  0  0  0  0  0  0  0  0  0  0  0
    1.5151   -1.9358    2.7588 O   0  0  0  0  0  0  0  0  0  0  0  0
    0.3568   -2.5793    3.3210 C   0  0  0  0  0  0  0  0  0  0  0  0
   -0.5926   -3.0088    2.1778 C   0  0  0  0  0  0  0  0  0  0  0  0
    0.0210   -4.1034    1.4837 O   0  0  0  0  0  0  0  0  0  0  0  0
   -0.7202   -4.5897    0.3612 C   0  0  0  0  0  0  0  0  0  0  0  0
    0.0490   -5.7896   -0.2100 C   0  0  0  0  0  0  0  0  0  0  0  0
   -0.7489   -6.4195   -1.2717 N   0  0  0  0  0  0  0  0  0  0  0  0
   -0.7991   -7.7880   -1.4933 C   0  0  0  0  0  0  0  0  0  0  0  0
    0.2911   -8.6481   -1.2271 C   0  0  0  0  0  0  0  0  0  0  0  0
    0.1871  -10.0443   -1.4497 C   0  0  0  0  0  0  0  0  0  0  0  0
   -1.0118  -10.6063   -1.9383 C   0  0  0  0  0  0  0  0  0  0  0  0
   -2.0799   -9.7398   -2.2039 C   0  0  0  0  0  0  0  0  0  0  0  0
   -1.9700   -8.3666   -1.9957 C   0  0  0  0  0  0  0  0  0  0  0  0
   -3.1600   -7.7774   -2.3547 C   0  0  0  0  0  0  0  0  0  0  0  0
   -3.3535   -6.5861   -2.5616 O   0  0  0  0  0  0  0  0  0  0  0  0
   -4.0219   -8.7849   -2.8209 N   0  0  0  0  0  0  0  0  0  0  0  0
   -5.3323   -8.6277   -3.4973 C   0  0  0  0  0  0  0  0  0  0  0  0
   -5.1742   -8.7341   -5.0306 C   0  0  0  0  0  0  0  0  0  0  0  0
   -4.5400   -7.4397   -5.5829 C   0  0  0  0  0  0  0  0  0  0  0  0
   -5.2987   -6.2063   -5.1436 C   0  0  0  0  0  0  0  0  0  0  0  0
   -5.3505   -5.1798   -5.8043 O   0  0  0  0  0  0  0  0  0  0  0  0
   -6.0892   -6.2603   -3.9878 N   0  0  0  0  0  0  0  0  0  0  0  0
   -6.0859   -7.3574   -3.1095 C   0  0  0  0  0  0  0  0  0  0  0  0
   -6.8708   -7.3030   -2.1723 O   0  0  0  0  0  0  0  0  0  0  0  0
   -3.3403  -10.0009   -2.6855 C   0  0  0  0  0  0  0  0  0  0  0  0
   -3.7906  -11.0622   -3.1041 O   0  0  0  0  0  0  0  0  0  0  0  0
    1.3442    3.6716    0.3671 H   0  0  0  0  0  0  0  0  0  0  0  0
    0.2949    3.6107    1.7846 H   0  0  0  0  0  0  0  0  0  0  0  0
    3.7785    4.6797    0.8806 H   0  0  0  0  0  0  0  0  0  0  0  0
    4.5088   11.0551    1.6979 H   0  0  0  0  0  0  0  0  0  0  0  0
    2.8717   12.8928    2.0564 H   0  0  0  0  0  0  0  0  0  0  0  0
   -0.0229   10.7862   -0.3445 H   0  0  0  0  0  0  0  0  0  0  0  0
    6.5504    7.8069   -1.3126 H   0  0  0  0  0  0  0  0  0  0  0  0
    2.2832    9.2241    2.6530 H   0  0  0  0  0  0  0  0  0  0  0  0
    0.1482    9.3973    3.8488 H   0  0  0  0  0  0  0  0  0  0  0  0
   -1.2800    7.3872    4.1960 H   0  0  0  0  0  0  0  0  0  0  0  0
   -0.5037    5.1618    3.3504 H   0  0  0  0  0  0  0  0  0  0  0  0
    0.9722    2.2946    3.6824 H   0  0  0  0  0  0  0  0  0  0  0  0
    1.4670    0.1055    4.3438 H   0  0  0  0  0  0  0  0  0  0  0  0
    2.9810    0.2485    3.4288 H   0  0  0  0  0  0  0  0  0  0  0  0
    1.9014   -0.4447    1.3573 H   0  0  0  0  0  0  0  0  0  0  0  0
    0.2870   -0.3598    2.0887 H   0  0  0  0  0  0  0  0  0  0  0  0
   -0.1655   -1.9062    4.0122 H   0  0  0  0  0  0  0  0  0  0  0  0
    0.6562   -3.4744    3.8820 H   0  0  0  0  0  0  0  0  0  0  0  0
   -0.7797   -2.1708    1.4956 H   0  0  0  0  0  0  0  0  0  0  0  0
   -1.5523   -3.3232    2.6076 H   0  0  0  0  0  0  0  0  0  0  0  0
   -1.7244   -4.9095    0.6698 H   0  0  0  0  0  0  0  0  0  0  0  0
   -0.8196   -3.8119   -0.4086 H   0  0  0  0  0  0  0  0  0  0  0  0
    1.0154   -5.4500   -0.6067 H   0  0  0  0  0  0  0  0  0  0  0  0
    0.2383   -6.5052    0.6005 H   0  0  0  0  0  0  0  0  0  0  0  0
   -1.5616   -5.9108   -1.6067 H   0  0  0  0  0  0  0  0  0  0  0  0
    1.2272   -8.2373   -0.8602 H   0  0  0  0  0  0  0  0  0  0  0  0
    1.0385  -10.6883   -1.2418 H   0  0  0  0  0  0  0  0  0  0  0  0
   -1.1076  -11.6760   -2.1087 H   0  0  0  0  0  0  0  0  0  0  0  0
   -5.9586   -9.4686   -3.1665 H   0  0  0  0  0  0  0  0  0  0  0  0
   -6.1646   -8.8786   -5.4846 H   0  0  0  0  0  0  0  0  0  0  0  0
   -4.5677   -9.6094   -5.2967 H   0  0  0  0  0  0  0  0  0  0  0  0
   -3.5022   -7.3521   -5.2397 H   0  0  0  0  0  0  0  0  0  0  0  0
   -4.5060   -7.4751   -6.6781 H   0  0  0  0  0  0  0  0  0  0  0  0
   -6.6102   -5.4379   -3.7251 H   0  0  0  0  0  0  0  0  0  0  0  0
  1  2  2  0  0  0  0
  2  3  1  0  0  0  0
  2 28  1  0  0  0  0
  3  4  1  0  0  0  0
  3 57  1  0  0  0  0
  3 58  1  0  0  0  0
  4  5  1  0  0  0  0
  4 27  1  0  0  0  0
  5  6  2  0  0  0  0
  5 59  1  0  0  0  0
  6  7  1  0  0  0  0
  6 22  1  0  0  0  0
  7  8  2  0  0  0  0
  7 20  1  0  0  0  0
  8  9  1  0  0  0  0
  8 17  1  0  0  0  0
  9 10  2  0  0  0  0
  9 15  1  0  0  0  0
 10 11  1  0  0  0  0
 10 60  1  0  0  0  0
 11 12  2  0  0  0  0
 11 61  1  0  0  0  0
 12 13  1  0  0  0  0
 12 14  1  0  0  0  0
 14 15  2  0  0  0  0
 14 62  1  0  0  0  0
 15 16  1  0  0  0  0
 17 18  2  0  0  0  0
 17 19  1  0  0  0  0
 19 20  1  0  0  0  0
 19 63  1  0  0  0  0
 20 21  2  0  0  0  0
 22 23  2  0  0  0  0
 22 27  1  0  0  0  0
 23 24  1  0  0  0  0
 23 64  1  0  0  0  0
 24 25  2  0  0  0  0
 24 65  1  0  0  0  0
 25 26  1  0  0  0  0
 25 66  1  0  0  0  0
 26 27  2  0  0  0  0
 26 67  1  0  0  0  0
 28 29  1  0  0  0  0
 28 68  1  0  0  0  0
 29 30  1  0  0  0  0
 29 69  1  0  0  0  0
 29 70  1  0  0  0  0
 30 31  1  0  0  0  0
 30 71  1  0  0  0  0
 30 72  1  0  0  0  0
 31 32  1  0  0  0  0
 32 33  1  0  0  0  0
 32 73  1  0  0  0  0
 32 74  1  0  0  0  0
 33 34  1  0  0  0  0
 33 75  1  0  0  0  0
 33 76  1  0  0  0  0
 34 35  1  0  0  0  0
 35 36  1  0  0  0  0
 35 77  1  0  0  0  0
 35 78  1  0  0  0  0
 36 37  1  0  0  0  0
 36 79  1  0  0  0  0
 36 80  1  0  0  0  0
 37 38  1  0  0  0  0
 37 81  1  0  0  0  0
 38 39  2  0  0  0  0
 38 43  1  0  0  0  0
 39 40  1  0  0  0  0
 39 82  1  0  0  0  0
 40 41  2  0  0  0  0
 40 83  1  0  0  0  0
 41 42  1  0  0  0  0
 41 84  1  0  0  0  0
 42 43  2  0  0  0  0
 42 55  1  0  0  0  0
 43 44  1  0  0  0  0
 44 45  2  0  0  0  0
 44 46  1  0  0  0  0
 46 47  1  0  0  0  0
 46 55  1  0  0  0  0
 47 48  1  0  0  0  0
 47 53  1  0  0  0  0
 47 85  1  0  0  0  0
 48 49  1  0  0  0  0
 48 86  1  0  0  0  0
 48 87  1  0  0  0  0
 49 50  1  0  0  0  0
 49 88  1  0  0  0  0
 49 89  1  0  0  0  0
 50 51  2  0  0  0  0
 50 52  1  0  0  0  0
 52 53  1  0  0  0  0
 52 90  1  0  0  0  0
 53 54  2  0  0  0  0
 55 56  2  0  0  0  0
M  END
$$$$
protac3895RUN2
  chem.cr 07102519423D
protac3895RUN2
 90 96  0  0  0  0  0  0  0  0999 V2000
    4.3808    1.5973   -2.7192 O   0  0  0  0  0  0  0  0  0  0  0  0
    3.5056    2.3219   -2.2671 C   0  0  0  0  0  0  0  0  0  0  0  0
    3.3496    3.7770   -2.6333 C   0  0  0  0  0  0  0  0  0  0  0  0
    3.1871    4.6677   -1.4692 N   0  0  0  0  0  0  0  0  0  0  0  0
    4.2500    4.9884   -0.6179 C   0  0  0  0  0  0  0  0  0  0  0  0
    3.7892    5.5329    0.5306 C   0  0  0  0  0  0  0  0  0  0  0  0
    4.5553    6.1469    1.4871 C   0  0  0  0  0  0  0  0  0  0  0  0
    4.2400    6.9807    2.5195 C   0  0  0  0  0  0  0  0  0  0  0  0
    3.0153    7.5455    2.8302 C   0  0  0  0  0  0  0  0  0  0  0  0
    2.4846    7.3686    4.1273 C   0  0  0  0  0  0  0  0  0  0  0  0
    1.2582    7.9514    4.4858 C   0  0  0  0  0  0  0  0  0  0  0  0
    0.5576    8.7354    3.5568 C   0  0  0  0  0  0  0  0  0  0  0  0
   -0.9762    9.4692    4.0031 Cl  0  0  0  0  0  0  0  0  0  0  0  0
    1.0926    8.9539    2.2777 C   0  0  0  0  0  0  0  0  0  0  0  0
    2.3208    8.3748    1.9147 C   0  0  0  0  0  0  0  0  0  0  0  0
    2.9799    8.7511    0.3206 Cl  0  0  0  0  0  0  0  0  0  0  0  0
    5.3334    7.3429    3.1985 C   0  0  0  0  0  0  0  0  0  0  0  0
    5.5229    8.0759    4.1623 O   0  0  0  0  0  0  0  0  0  0  0  0
    6.4317    6.7701    2.5930 N   0  0  0  0  0  0  0  0  0  0  0  0
    5.9060    6.0356    1.5369 C   0  0  0  0  0  0  0  0  0  0  0  0
    6.7220    5.4077    0.8717 O   0  0  0  0  0  0  0  0  0  0  0  0
    2.3919    5.3870    0.4705 C   0  0  0  0  0  0  0  0  0  0  0  0
    1.4094    5.3962    1.4795 C   0  0  0  0  0  0  0  0  0  0  0  0
    0.0683    5.1079    1.1525 C   0  0  0  0  0  0  0  0  0  0  0  0
   -0.2902    4.7270   -0.1577 C   0  0  0  0  0  0  0  0  0  0  0  0
    0.7059    4.5821   -1.1403 C   0  0  0  0  0  0  0  0  0  0  0  0
    2.0249    4.8989   -0.7872 C   0  0  0  0  0  0  0  0  0  0  0  0
    2.5148    1.7789   -1.4399 N   0  0  0  0  0  0  0  0  0  0  0  0
    2.6458    0.4669   -0.7959 C   0  0  0  0  0  0  0  0  0  0  0  0
    1.9293    0.4660    0.5594 C   0  0  0  0  0  0  0  0  0  0  0  0
    2.1807   -0.7997    1.1851 O   0  0  0  0  0  0  0  0  0  0  0  0
    1.5425   -0.9838    2.4591 C   0  0  0  0  0  0  0  0  0  0  0  0
    0.0906   -1.4633    2.2310 C   0  0  0  0  0  0  0  0  0  0  0  0
    0.0613   -2.8824    2.4606 O   0  0  0  0  0  0  0  0  0  0  0  0
   -1.1601   -3.5611    2.1289 C   0  0  0  0  0  0  0  0  0  0  0  0
   -1.2348   -3.6863    0.5921 C   0  0  0  0  0  0  0  0  0  0  0  0
   -2.2589   -4.6627    0.1878 N   0  0  0  0  0  0  0  0  0  0  0  0
   -2.0293   -6.0247    0.0264 C   0  0  0  0  0  0  0  0  0  0  0  0
   -0.9067   -6.6872    0.5829 C   0  0  0  0  0  0  0  0  0  0  0  0
   -0.6988   -8.0725    0.3786 C   0  0  0  0  0  0  0  0  0  0  0  0
   -1.6022   -8.8242   -0.3992 C   0  0  0  0  0  0  0  0  0  0  0  0
   -2.7099   -8.1604   -0.9421 C   0  0  0  0  0  0  0  0  0  0  0  0
   -2.9218   -6.7992   -0.7280 C   0  0  0  0  0  0  0  0  0  0  0  0
   -4.0644   -6.4377   -1.4049 C   0  0  0  0  0  0  0  0  0  0  0  0
   -4.5517   -5.3193   -1.5131 O   0  0  0  0  0  0  0  0  0  0  0  0
   -4.5492   -7.5659   -2.0857 N   0  0  0  0  0  0  0  0  0  0  0  0
   -5.6293   -7.6296   -3.0971 C   0  0  0  0  0  0  0  0  0  0  0  0
   -5.1049   -7.2889   -4.5112 C   0  0  0  0  0  0  0  0  0  0  0  0
   -4.9877   -5.7599   -4.6977 C   0  0  0  0  0  0  0  0  0  0  0  0
   -6.2744   -5.0475   -4.3430 C   0  0  0  0  0  0  0  0  0  0  0  0
   -6.6455   -4.0169   -4.8845 O   0  0  0  0  0  0  0  0  0  0  0  0
   -7.1421   -5.6198   -3.4050 N   0  0  0  0  0  0  0  0  0  0  0  0
   -6.8608   -6.8130   -2.7221 C   0  0  0  0  0  0  0  0  0  0  0  0
   -7.7560   -7.2487   -2.0113 O   0  0  0  0  0  0  0  0  0  0  0  0
   -3.7135   -8.6383   -1.7538 C   0  0  0  0  0  0  0  0  0  0  0  0
   -3.7198   -9.6844   -2.3939 O   0  0  0  0  0  0  0  0  0  0  0  0
    4.2391    4.0908   -3.1903 H   0  0  0  0  0  0  0  0  0  0  0  0
    2.4900    3.8946   -3.3007 H   0  0  0  0  0  0  0  0  0  0  0  0
    5.2673    4.9006   -0.9930 H   0  0  0  0  0  0  0  0  0  0  0  0
    3.0270    6.7702    4.8550 H   0  0  0  0  0  0  0  0  0  0  0  0
    0.8542    7.8025    5.4832 H   0  0  0  0  0  0  0  0  0  0  0  0
    0.5628    9.5844    1.5687 H   0  0  0  0  0  0  0  0  0  0  0  0
    7.3287    6.6147    3.0262 H   0  0  0  0  0  0  0  0  0  0  0  0
    1.6612    5.5687    2.5127 H   0  0  0  0  0  0  0  0  0  0  0  0
   -0.6920    5.1554    1.9274 H   0  0  0  0  0  0  0  0  0  0  0  0
   -1.3269    4.4967   -0.3909 H   0  0  0  0  0  0  0  0  0  0  0  0
    0.4583    4.2169   -2.1314 H   0  0  0  0  0  0  0  0  0  0  0  0
    1.8261    2.4240   -1.0715 H   0  0  0  0  0  0  0  0  0  0  0  0
    3.7098    0.2375   -0.6448 H   0  0  0  0  0  0  0  0  0  0  0  0
    2.2229   -0.3091   -1.4483 H   0  0  0  0  0  0  0  0  0  0  0  0
    0.8561    0.6381    0.4146 H   0  0  0  0  0  0  0  0  0  0  0  0
    2.3328    1.2807    1.1759 H   0  0  0  0  0  0  0  0  0  0  0  0
    1.5430   -0.0468    3.0310 H   0  0  0  0  0  0  0  0  0  0  0  0
    2.0866   -1.7323    3.0498 H   0  0  0  0  0  0  0  0  0  0  0  0
   -0.2243   -1.2182    1.2097 H   0  0  0  0  0  0  0  0  0  0  0  0
   -0.5804   -0.9509    2.9324 H   0  0  0  0  0  0  0  0  0  0  0  0
   -1.1531   -4.5631    2.5785 H   0  0  0  0  0  0  0  0  0  0  0  0
   -2.0392   -3.0310    2.5203 H   0  0  0  0  0  0  0  0  0  0  0  0
   -1.4717   -2.7093    0.1537 H   0  0  0  0  0  0  0  0  0  0  0  0
   -0.2530   -3.9890    0.2031 H   0  0  0  0  0  0  0  0  0  0  0  0
   -3.1189   -4.3162   -0.2273 H   0  0  0  0  0  0  0  0  0  0  0  0
   -0.1875   -6.1371    1.1798 H   0  0  0  0  0  0  0  0  0  0  0  0
    0.1682   -8.5585    0.8194 H   0  0  0  0  0  0  0  0  0  0  0  0
   -1.4481   -9.8858   -0.5776 H   0  0  0  0  0  0  0  0  0  0  0  0
   -5.9631   -8.6759   -3.1246 H   0  0  0  0  0  0  0  0  0  0  0  0
   -5.8098   -7.6855   -5.2554 H   0  0  0  0  0  0  0  0  0  0  0  0
   -4.1376   -7.7805   -4.6894 H   0  0  0  0  0  0  0  0  0  0  0  0
   -4.1805   -5.3594   -4.0734 H   0  0  0  0  0  0  0  0  0  0  0  0
   -4.7175   -5.5265   -5.7348 H   0  0  0  0  0  0  0  0  0  0  0  0
   -7.9950   -5.1308   -3.1767 H   0  0  0  0  0  0  0  0  0  0  0  0
  1  2  2  0  0  0  0
  2  3  1  0  0  0  0
  2 28  1  0  0  0  0
  3  4  1  0  0  0  0
  3 57  1  0  0  0  0
  3 58  1  0  0  0  0
  4  5  1  0  0  0  0
  4 27  1  0  0  0  0
  5  6  2  0  0  0  0
  5 59  1  0  0  0  0
  6  7  1  0  0  0  0
  6 22  1  0  0  0  0
  7  8  2  0  0  0  0
  7 20  1  0  0  0  0
  8  9  1  0  0  0  0
  8 17  1  0  0  0  0
  9 10  2  0  0  0  0
  9 15  1  0  0  0  0
 10 11  1  0  0  0  0
 10 60  1  0  0  0  0
 11 12  2  0  0  0  0
 11 61  1  0  0  0  0
 12 13  1  0  0  0  0
 12 14  1  0  0  0  0
 14 15  2  0  0  0  0
 14 62  1  0  0  0  0
 15 16  1  0  0  0  0
 17 18  2  0  0  0  0
 17 19  1  0  0  0  0
 19 20  1  0  0  0  0
 19 63  1  0  0  0  0
 20 21  2  0  0  0  0
 22 23  2  0  0  0  0
 22 27  1  0  0  0  0
 23 24  1  0  0  0  0
 23 64  1  0  0  0  0
 24 25  2  0  0  0  0
 24 65  1  0  0  0  0
 25 26  1  0  0  0  0
 25 66  1  0  0  0  0
 26 27  2  0  0  0  0
 26 67  1  0  0  0  0
 28 29  1  0  0  0  0
 28 68  1  0  0  0  0
 29 30  1  0  0  0  0
 29 69  1  0  0  0  0
 29 70  1  0  0  0  0
 30 31  1  0  0  0  0
 30 71  1  0  0  0  0
 30 72  1  0  0  0  0
 31 32  1  0  0  0  0
 32 33  1  0  0  0  0
 32 73  1  0  0  0  0
 32 74  1  0  0  0  0
 33 34  1  0  0  0  0
 33 75  1  0  0  0  0
 33 76  1  0  0  0  0
 34 35  1  0  0  0  0
 35 36  1  0  0  0  0
 35 77  1  0  0  0  0
 35 78  1  0  0  0  0
 36 37  1  0  0  0  0
 36 79  1  0  0  0  0
 36 80  1  0  0  0  0
 37 38  1  0  0  0  0
 37 81  1  0  0  0  0
 38 39  2  0  0  0  0
 38 43  1  0  0  0  0
 39 40  1  0  0  0  0
 39 82  1  0  0  0  0
 40 41  2  0  0  0  0
 40 83  1  0  0  0  0
 41 42  1  0  0  0  0
 41 84  1  0  0  0  0
 42 43  2  0  0  0  0
 42 55  1  0  0  0  0
 43 44  1  0  0  0  0
 44 45  2  0  0  0  0
 44 46  1  0  0  0  0
 46 47  1  0  0  0  0
 46 55  1  0  0  0  0
 47 48  1  0  0  0  0
 47 53  1  0  0  0  0
 47 85  1  0  0  0  0
 48 49  1  0  0  0  0
 48 86  1  0  0  0  0
 48 87  1  0  0  0  0
 49 50  1  0  0  0  0
 49 88  1  0  0  0  0
 49 89  1  0  0  0  0
 50 51  2  0  0  0  0
 50 52  1  0  0  0  0
 52 53  1  0  0  0  0
 52 90  1  0  0  0  0
 53 54  2  0  0  0  0
 55 56  2  0  0  0  0
M  END
$$$$
protac3895RUN2
  chem.cr 07102519423D
protac3895RUN2
 90 96  0  0  0  0  0  0  0  0999 V2000
    3.6438   -0.0012   -4.2348 O   0  0  0  0  0  0  0  0  0  0  0  0
    2.6212    0.5137   -3.8045 C   0  0  0  0  0  0  0  0  0  0  0  0
    2.1050    1.8588   -4.2648 C   0  0  0  0  0  0  0  0  0  0  0  0
    1.8486    2.8064   -3.1583 N   0  0  0  0  0  0  0  0  0  0  0  0
    2.7798    2.8918   -2.1110 C   0  0  0  0  0  0  0  0  0  0  0  0
    2.1763    3.1685   -0.9362 C   0  0  0  0  0  0  0  0  0  0  0  0
    2.8042    3.4483    0.2454 C   0  0  0  0  0  0  0  0  0  0  0  0
    2.3704    4.0467    1.3863 C   0  0  0  0  0  0  0  0  0  0  0  0
    1.1609    4.6821    1.6112 C   0  0  0  0  0  0  0  0  0  0  0  0
    0.3751    4.2940    2.7184 C   0  0  0  0  0  0  0  0  0  0  0  0
   -0.8558    4.9195    2.9769 C   0  0  0  0  0  0  0  0  0  0  0  0
   -1.3092    5.9465    2.1347 C   0  0  0  0  0  0  0  0  0  0  0  0
   -2.8541    6.7243    2.4529 Cl  0  0  0  0  0  0  0  0  0  0  0  0
   -0.5178    6.3733    1.0575 C   0  0  0  0  0  0  0  0  0  0  0  0
    0.7235    5.7646    0.8079 C   0  0  0  0  0  0  0  0  0  0  0  0
    1.7257    6.4204   -0.4897 Cl  0  0  0  0  0  0  0  0  0  0  0  0
    3.3508    4.1259    2.2898 C   0  0  0  0  0  0  0  0  0  0  0  0
    3.4314    4.6379    3.3990 O   0  0  0  0  0  0  0  0  0  0  0  0
    4.4863    3.5354    1.7666 N   0  0  0  0  0  0  0  0  0  0  0  0
    4.1151    3.1866    0.4714 C   0  0  0  0  0  0  0  0  0  0  0  0
    4.9932    2.6699   -0.2078 O   0  0  0  0  0  0  0  0  0  0  0  0
    0.8016    3.1478   -1.2199 C   0  0  0  0  0  0  0  0  0  0  0  0
   -0.3201    3.0072   -0.3804 C   0  0  0  0  0  0  0  0  0  0  0  0
   -1.6083    2.9279   -0.9467 C   0  0  0  0  0  0  0  0  0  0  0  0
   -1.7816    2.9016   -2.3456 C   0  0  0  0  0  0  0  0  0  0  0  0
   -0.6564    2.8871   -3.1898 C   0  0  0  0  0  0  0  0  0  0  0  0
    0.6106    2.9844   -2.5950 C   0  0  0  0  0  0  0  0  0  0  0  0
    1.9572   -0.0657   -2.7129 N   0  0  0  0  0  0  0  0  0  0  0  0
    2.5743   -1.0694   -1.8319 C   0  0  0  0  0  0  0  0  0  0  0  0
    3.3545   -0.4000   -0.6875 C   0  0  0  0  0  0  0  0  0  0  0  0
    3.4064   -1.3444    0.3920 O   0  0  0  0  0  0  0  0  0  0  0  0
    4.0285   -0.8960    1.6104 C   0  0  0  0  0  0  0  0  0  0  0  0
    3.1288    0.1232    2.3645 C   0  0  0  0  0  0  0  0  0  0  0  0
    2.2420   -0.5378    3.2933 O   0  0  0  0  0  0  0  0  0  0  0  0
    0.9835   -1.0143    2.7857 C   0  0  0  0  0  0  0  0  0  0  0  0
    1.1123   -2.5023    2.4237 C   0  0  0  0  0  0  0  0  0  0  0  0
   -0.1575   -3.0019    1.8774 N   0  0  0  0  0  0  0  0  0  0  0  0
   -0.2733   -4.1068    1.0446 C   0  0  0  0  0  0  0  0  0  0  0  0
    0.7875   -5.0217    0.8357 C   0  0  0  0  0  0  0  0  0  0  0  0
    0.6335   -6.1364   -0.0230 C   0  0  0  0  0  0  0  0  0  0  0  0
   -0.5873   -6.3619   -0.6883 C   0  0  0  0  0  0  0  0  0  0  0  0
   -1.6306   -5.4567   -0.4677 C   0  0  0  0  0  0  0  0  0  0  0  0
   -1.4811   -4.3585    0.3782 C   0  0  0  0  0  0  0  0  0  0  0  0
   -2.6763   -3.6742    0.4097 C   0  0  0  0  0  0  0  0  0  0  0  0
   -2.8336   -2.4908    0.6870 O   0  0  0  0  0  0  0  0  0  0  0  0
   -3.5887   -4.3522   -0.4160 N   0  0  0  0  0  0  0  0  0  0  0  0
   -5.0637   -4.3069   -0.2943 C   0  0  0  0  0  0  0  0  0  0  0  0
   -5.6960   -3.6546   -1.5409 C   0  0  0  0  0  0  0  0  0  0  0  0
   -5.5575   -2.1190   -1.4649 C   0  0  0  0  0  0  0  0  0  0  0  0
   -6.1207   -1.5704   -0.1746 C   0  0  0  0  0  0  0  0  0  0  0  0
   -6.7204   -0.5080   -0.1021 O   0  0  0  0  0  0  0  0  0  0  0  0
   -6.0905   -2.3678    0.9743 N   0  0  0  0  0  0  0  0  0  0  0  0
   -5.5516   -3.6617    0.9986 C   0  0  0  0  0  0  0  0  0  0  0  0
   -5.6448   -4.2648    2.0575 O   0  0  0  0  0  0  0  0  0  0  0  0
   -2.9102   -5.4461   -0.9624 C   0  0  0  0  0  0  0  0  0  0  0  0
   -3.4507   -6.2554   -1.7076 O   0  0  0  0  0  0  0  0  0  0  0  0
    2.8393    2.3088   -4.9433 H   0  0  0  0  0  0  0  0  0  0  0  0
    1.1845    1.7001   -4.8370 H   0  0  0  0  0  0  0  0  0  0  0  0
    3.8376    2.8165   -2.3528 H   0  0  0  0  0  0  0  0  0  0  0  0
    0.7180    3.4968    3.3729 H   0  0  0  0  0  0  0  0  0  0  0  0
   -1.4555    4.6117    3.8274 H   0  0  0  0  0  0  0  0  0  0  0  0
   -0.8593    7.1852    0.4222 H   0  0  0  0  0  0  0  0  0  0  0  0
    5.4172    3.8387    2.0071 H   0  0  0  0  0  0  0  0  0  0  0  0
   -0.2172    2.9076    0.6883 H   0  0  0  0  0  0  0  0  0  0  0  0
   -2.4761    2.8620   -0.2954 H   0  0  0  0  0  0  0  0  0  0  0  0
   -2.7818    2.8382   -2.7639 H   0  0  0  0  0  0  0  0  0  0  0  0
   -0.7732    2.7889   -4.2639 H   0  0  0  0  0  0  0  0  0  0  0  0
    1.1515    0.4395   -2.3586 H   0  0  0  0  0  0  0  0  0  0  0  0
    3.2473   -1.7190   -2.4071 H   0  0  0  0  0  0  0  0  0  0  0  0
    1.7819   -1.7018   -1.4109 H   0  0  0  0  0  0  0  0  0  0  0  0
    2.8318    0.5138   -0.3843 H   0  0  0  0  0  0  0  0  0  0  0  0
    4.3610   -0.1205   -1.0312 H   0  0  0  0  0  0  0  0  0  0  0  0
    4.9949   -0.4264    1.3847 H   0  0  0  0  0  0  0  0  0  0  0  0
    4.2280   -1.7499    2.2691 H   0  0  0  0  0  0  0  0  0  0  0  0
    2.5644    0.7560    1.6710 H   0  0  0  0  0  0  0  0  0  0  0  0
    3.7905    0.7887    2.9327 H   0  0  0  0  0  0  0  0  0  0  0  0
    0.2161   -0.9123    3.5649 H   0  0  0  0  0  0  0  0  0  0  0  0
    0.6565   -0.4314    1.9143 H   0  0  0  0  0  0  0  0  0  0  0  0
    1.9034   -2.6355    1.6833 H   0  0  0  0  0  0  0  0  0  0  0  0
    1.3835   -3.0666    3.3234 H   0  0  0  0  0  0  0  0  0  0  0  0
   -0.9869   -2.4224    1.9666 H   0  0  0  0  0  0  0  0  0  0  0  0
    1.7345   -4.8847    1.3482 H   0  0  0  0  0  0  0  0  0  0  0  0
    1.4599   -6.8291   -0.1613 H   0  0  0  0  0  0  0  0  0  0  0  0
   -0.7235   -7.2170   -1.3453 H   0  0  0  0  0  0  0  0  0  0  0  0
   -5.4085   -5.3474   -0.2584 H   0  0  0  0  0  0  0  0  0  0  0  0
   -6.7607   -3.9181   -1.5817 H   0  0  0  0  0  0  0  0  0  0  0  0
   -5.2250   -4.0434   -2.4538 H   0  0  0  0  0  0  0  0  0  0  0  0
   -4.5007   -1.8348   -1.5318 H   0  0  0  0  0  0  0  0  0  0  0  0
   -6.0688   -1.6480   -2.3153 H   0  0  0  0  0  0  0  0  0  0  0  0
   -6.4609   -1.9896    1.8314 H   0  0  0  0  0  0  0  0  0  0  0  0
  1  2  2  0  0  0  0
  2  3  1  0  0  0  0
  2 28  1  0  0  0  0
  3  4  1  0  0  0  0
  3 57  1  0  0  0  0
  3 58  1  0  0  0  0
  4  5  1  0  0  0  0
  4 27  1  0  0  0  0
  5  6  2  0  0  0  0
  5 59  1  0  0  0  0
  6  7  1  0  0  0  0
  6 22  1  0  0  0  0
  7  8  2  0  0  0  0
  7 20  1  0  0  0  0
  8  9  1  0  0  0  0
  8 17  1  0  0  0  0
  9 10  2  0  0  0  0
  9 15  1  0  0  0  0
 10 11  1  0  0  0  0
 10 60  1  0  0  0  0
 11 12  2  0  0  0  0
 11 61  1  0  0  0  0
 12 13  1  0  0  0  0
 12 14  1  0  0  0  0
 14 15  2  0  0  0  0
 14 62  1  0  0  0  0
 15 16  1  0  0  0  0
 17 18  2  0  0  0  0
 17 19  1  0  0  0  0
 19 20  1  0  0  0  0
 19 63  1  0  0  0  0
 20 21  2  0  0  0  0
 22 23  2  0  0  0  0
 22 27  1  0  0  0  0
 23 24  1  0  0  0  0
 23 64  1  0  0  0  0
 24 25  2  0  0  0  0
 24 65  1  0  0  0  0
 25 26  1  0  0  0  0
 25 66  1  0  0  0  0
 26 27  2  0  0  0  0
 26 67  1  0  0  0  0
 28 29  1  0  0  0  0
 28 68  1  0  0  0  0
 29 30  1  0  0  0  0
 29 69  1  0  0  0  0
 29 70  1  0  0  0  0
 30 31  1  0  0  0  0
 30 71  1  0  0  0  0
 30 72  1  0  0  0  0
 31 32  1  0  0  0  0
 32 33  1  0  0  0  0
 32 73  1  0  0  0  0
 32 74  1  0  0  0  0
 33 34  1  0  0  0  0
 33 75  1  0  0  0  0
 33 76  1  0  0  0  0
 34 35  1  0  0  0  0
 35 36  1  0  0  0  0
 35 77  1  0  0  0  0
 35 78  1  0  0  0  0
 36 37  1  0  0  0  0
 36 79  1  0  0  0  0
 36 80  1  0  0  0  0
 37 38  1  0  0  0  0
 37 81  1  0  0  0  0
 38 39  2  0  0  0  0
 38 43  1  0  0  0  0
 39 40  1  0  0  0  0
 39 82  1  0  0  0  0
 40 41  2  0  0  0  0
 40 83  1  0  0  0  0
 41 42  1  0  0  0  0
 41 84  1  0  0  0  0
 42 43  2  0  0  0  0
 42 55  1  0  0  0  0
 43 44  1  0  0  0  0
 44 45  2  0  0  0  0
 44 46  1  0  0  0  0
 46 47  1  0  0  0  0
 46 55  1  0  0  0  0
 47 48  1  0  0  0  0
 47 53  1  0  0  0  0
 47 85  1  0  0  0  0
 48 49  1  0  0  0  0
 48 86  1  0  0  0  0
 48 87  1  0  0  0  0
 49 50  1  0  0  0  0
 49 88  1  0  0  0  0
 49 89  1  0  0  0  0
 50 51  2  0  0  0  0
 50 52  1  0  0  0  0
 52 53  1  0  0  0  0
 52 90  1  0  0  0  0
 53 54  2  0  0  0  0
 55 56  2  0  0  0  0
M  END
$$$$
protac3895RUN2
  chem.cr 07102519423D
protac3895RUN2
 90 96  0  0  0  0  0  0  0  0999 V2000
    5.8439    3.9250   -3.4717 O   0  0  0  0  0  0  0  0  0  0  0  0
    4.6851    3.5567   -3.6049 C   0  0  0  0  0  0  0  0  0  0  0  0
    3.5585    4.4737   -4.0285 C   0  0  0  0  0  0  0  0  0  0  0  0
    2.4548    4.5233   -3.0479 N   0  0  0  0  0  0  0  0  0  0  0  0
    2.7448    4.9245   -1.7351 C   0  0  0  0  0  0  0  0  0  0  0  0
    1.9284    4.3155   -0.8489 C   0  0  0  0  0  0  0  0  0  0  0  0
    1.8169    4.6166    0.4804 C   0  0  0  0  0  0  0  0  0  0  0  0
    0.8460    4.3411    1.3899 C   0  0  0  0  0  0  0  0  0  0  0  0
   -0.3882    3.7572    1.1707 C   0  0  0  0  0  0  0  0  0  0  0  0
   -0.7513    2.6268    1.9345 C   0  0  0  0  0  0  0  0  0  0  0  0
   -1.9835    1.9869    1.7212 C   0  0  0  0  0  0  0  0  0  0  0  0
   -2.8709    2.4858    0.7585 C   0  0  0  0  0  0  0  0  0  0  0  0
   -4.4001    1.6678    0.4675 Cl  0  0  0  0  0  0  0  0  0  0  0  0
   -2.5515    3.6459    0.0366 C   0  0  0  0  0  0  0  0  0  0  0  0
   -1.3227    4.2920    0.2492 C   0  0  0  0  0  0  0  0  0  0  0  0
   -1.0101    5.7935   -0.6271 Cl  0  0  0  0  0  0  0  0  0  0  0  0
    1.1403    4.8653    2.5839 C   0  0  0  0  0  0  0  0  0  0  0  0
    0.5387    4.9201    3.6471 O   0  0  0  0  0  0  0  0  0  0  0  0
    2.3675    5.4974    2.4985 N   0  0  0  0  0  0  0  0  0  0  0  0
    2.7198    5.3657    1.1584 C   0  0  0  0  0  0  0  0  0  0  0  0
    3.7752    5.8982    0.8318 O   0  0  0  0  0  0  0  0  0  0  0  0
    1.2008    3.3823   -1.6025 C   0  0  0  0  0  0  0  0  0  0  0  0
    0.5197    2.2121   -1.2184 C   0  0  0  0  0  0  0  0  0  0  0  0
   -0.0335    1.3712   -2.2063 C   0  0  0  0  0  0  0  0  0  0  0  0
    0.1591    1.6470   -3.5763 C   0  0  0  0  0  0  0  0  0  0  0  0
    0.9597    2.7350   -3.9657 C   0  0  0  0  0  0  0  0  0  0  0  0
    1.4803    3.5608   -2.9592 C   0  0  0  0  0  0  0  0  0  0  0  0
    4.3030    2.2935   -3.1291 N   0  0  0  0  0  0  0  0  0  0  0  0
    5.0682    1.5386   -2.1295 C   0  0  0  0  0  0  0  0  0  0  0  0
    4.1213    0.8374   -1.1351 C   0  0  0  0  0  0  0  0  0  0  0  0
    4.5570   -0.5229   -0.9939 O   0  0  0  0  0  0  0  0  0  0  0  0
    3.9375   -1.2781    0.0629 C   0  0  0  0  0  0  0  0  0  0  0  0
    2.4584   -1.5776   -0.2860 C   0  0  0  0  0  0  0  0  0  0  0  0
    1.8363   -2.1895    0.8532 O   0  0  0  0  0  0  0  0  0  0  0  0
    1.4116   -1.3002    1.8990 C   0  0  0  0  0  0  0  0  0  0  0  0
    0.8101   -2.1567    3.0347 C   0  0  0  0  0  0  0  0  0  0  0  0
   -0.3926   -2.8808    2.5824 N   0  0  0  0  0  0  0  0  0  0  0  0
   -0.4307   -4.1539    2.0252 C   0  0  0  0  0  0  0  0  0  0  0  0
    0.7082   -4.9836    1.8816 C   0  0  0  0  0  0  0  0  0  0  0  0
    0.6088   -6.2712    1.3002 C   0  0  0  0  0  0  0  0  0  0  0  0
   -0.6297   -6.7535    0.8291 C   0  0  0  0  0  0  0  0  0  0  0  0
   -1.7489   -5.9204    0.9595 C   0  0  0  0  0  0  0  0  0  0  0  0
   -1.6508   -4.6615    1.5542 C   0  0  0  0  0  0  0  0  0  0  0  0
   -2.9007   -4.0895    1.5347 C   0  0  0  0  0  0  0  0  0  0  0  0
   -3.2562   -3.0395    2.0573 O   0  0  0  0  0  0  0  0  0  0  0  0
   -3.7807   -4.9697    0.8910 N   0  0  0  0  0  0  0  0  0  0  0  0
   -5.2143   -4.7649    0.5891 C   0  0  0  0  0  0  0  0  0  0  0  0
   -5.4132   -3.8804   -0.6624 C   0  0  0  0  0  0  0  0  0  0  0  0
   -5.2985   -2.3786   -0.3150 C   0  0  0  0  0  0  0  0  0  0  0  0
   -6.1610   -1.9941    0.8688 C   0  0  0  0  0  0  0  0  0  0  0  0
   -6.6450   -0.8817    1.0160 O   0  0  0  0  0  0  0  0  0  0  0  0
   -6.5136   -2.9668    1.8104 N   0  0  0  0  0  0  0  0  0  0  0  0
   -6.0138   -4.2771    1.7895 C   0  0  0  0  0  0  0  0  0  0  0  0
   -6.4558   -5.0303    2.6457 O   0  0  0  0  0  0  0  0  0  0  0  0
   -3.0517   -6.1182    0.5574 C   0  0  0  0  0  0  0  0  0  0  0  0
   -3.4503   -6.8983   -0.2989 O   0  0  0  0  0  0  0  0  0  0  0  0
    3.9597    5.4861   -4.1589 H   0  0  0  0  0  0  0  0  0  0  0  0
    3.1732    4.1493   -5.0007 H   0  0  0  0  0  0  0  0  0  0  0  0
    3.4727    5.7190   -1.5855 H   0  0  0  0  0  0  0  0  0  0  0  0
   -0.0647    2.2418    2.6846 H   0  0  0  0  0  0  0  0  0  0  0  0
   -2.2497    1.1072    2.3006 H   0  0  0  0  0  0  0  0  0  0  0  0
   -3.2583    4.0493   -0.6842 H   0  0  0  0  0  0  0  0  0  0  0  0
    2.6117    6.3047    3.0513 H   0  0  0  0  0  0  0  0  0  0  0  0
    0.4512    1.9139   -0.1848 H   0  0  0  0  0  0  0  0  0  0  0  0
   -0.5931    0.4901   -1.9082 H   0  0  0  0  0  0  0  0  0  0  0  0
   -0.2648    0.9855   -4.3286 H   0  0  0  0  0  0  0  0  0  0  0  0
    1.1852    2.9113   -5.0146 H   0  0  0  0  0  0  0  0  0  0  0  0
    3.3233    2.0542   -3.2329 H   0  0  0  0  0  0  0  0  0  0  0  0
    5.7325    2.2216   -1.5784 H   0  0  0  0  0  0  0  0  0  0  0  0
    5.6981    0.8009   -2.6459 H   0  0  0  0  0  0  0  0  0  0  0  0
    3.0920    0.8744   -1.5120 H   0  0  0  0  0  0  0  0  0  0  0  0
    4.1541    1.3650   -0.1734 H   0  0  0  0  0  0  0  0  0  0  0  0
    4.0137   -0.7348    1.0125 H   0  0  0  0  0  0  0  0  0  0  0  0
    4.4613   -2.2345    0.1875 H   0  0  0  0  0  0  0  0  0  0  0  0
    2.4346   -2.2710   -1.1373 H   0  0  0  0  0  0  0  0  0  0  0  0
    1.9162   -0.6687   -0.5745 H   0  0  0  0  0  0  0  0  0  0  0  0
    2.2553   -0.7202    2.2945 H   0  0  0  0  0  0  0  0  0  0  0  0
    0.6570   -0.5945    1.5265 H   0  0  0  0  0  0  0  0  0  0  0  0
    1.5673   -2.8486    3.4250 H   0  0  0  0  0  0  0  0  0  0  0  0
    0.5322   -1.4941    3.8627 H   0  0  0  0  0  0  0  0  0  0  0  0
   -1.2874   -2.4025    2.6231 H   0  0  0  0  0  0  0  0  0  0  0  0
    1.6813   -4.6348    2.2029 H   0  0  0  0  0  0  0  0  0  0  0  0
    1.4983   -6.8885    1.2065 H   0  0  0  0  0  0  0  0  0  0  0  0
   -0.7133   -7.7360    0.3710 H   0  0  0  0  0  0  0  0  0  0  0  0
   -5.6274   -5.7528    0.3460 H   0  0  0  0  0  0  0  0  0  0  0  0
   -6.4140   -4.0725   -1.0733 H   0  0  0  0  0  0  0  0  0  0  0  0
   -4.6877   -4.1581   -1.4386 H   0  0  0  0  0  0  0  0  0  0  0  0
   -4.2586   -2.1131   -0.0945 H   0  0  0  0  0  0  0  0  0  0  0  0
   -5.5921   -1.7754   -1.1821 H   0  0  0  0  0  0  0  0  0  0  0  0
   -7.0986   -2.6940    2.5850 H   0  0  0  0  0  0  0  0  0  0  0  0
  1  2  2  0  0  0  0
  2  3  1  0  0  0  0
  2 28  1  0  0  0  0
  3  4  1  0  0  0  0
  3 57  1  0  0  0  0
  3 58  1  0  0  0  0
  4  5  1  0  0  0  0
  4 27  1  0  0  0  0
  5  6  2  0  0  0  0
  5 59  1  0  0  0  0
  6  7  1  0  0  0  0
  6 22  1  0  0  0  0
  7  8  2  0  0  0  0
  7 20  1  0  0  0  0
  8  9  1  0  0  0  0
  8 17  1  0  0  0  0
  9 10  2  0  0  0  0
  9 15  1  0  0  0  0
 10 11  1  0  0  0  0
 10 60  1  0  0  0  0
 11 12  2  0  0  0  0
 11 61  1  0  0  0  0
 12 13  1  0  0  0  0
 12 14  1  0  0  0  0
 14 15  2  0  0  0  0
 14 62  1  0  0  0  0
 15 16  1  0  0  0  0
 17 18  2  0  0  0  0
 17 19  1  0  0  0  0
 19 20  1  0  0  0  0
 19 63  1  0  0  0  0
 20 21  2  0  0  0  0
 22 23  2  0  0  0  0
 22 27  1  0  0  0  0
 23 24  1  0  0  0  0
 23 64  1  0  0  0  0
 24 25  2  0  0  0  0
 24 65  1  0  0  0  0
 25 26  1  0  0  0  0
 25 66  1  0  0  0  0
 26 27  2  0  0  0  0
 26 67  1  0  0  0  0
 28 29  1  0  0  0  0
 28 68  1  0  0  0  0
 29 30  1  0  0  0  0
 29 69  1  0  0  0  0
 29 70  1  0  0  0  0
 30 31  1  0  0  0  0
 30 71  1  0  0  0  0
 30 72  1  0  0  0  0
 31 32  1  0  0  0  0
 32 33  1  0  0  0  0
 32 73  1  0  0  0  0
 32 74  1  0  0  0  0
 33 34  1  0  0  0  0
 33 75  1  0  0  0  0
 33 76  1  0  0  0  0
 34 35  1  0  0  0  0
 35 36  1  0  0  0  0
 35 77  1  0  0  0  0
 35 78  1  0  0  0  0
 36 37  1  0  0  0  0
 36 79  1  0  0  0  0
 36 80  1  0  0  0  0
 37 38  1  0  0  0  0
 37 81  1  0  0  0  0
 38 39  2  0  0  0  0
 38 43  1  0  0  0  0
 39 40  1  0  0  0  0
 39 82  1  0  0  0  0
 40 41  2  0  0  0  0
 40 83  1  0  0  0  0
 41 42  1  0  0  0  0
 41 84  1  0  0  0  0
 42 43  2  0  0  0  0
 42 55  1  0  0  0  0
 43 44  1  0  0  0  0
 44 45  2  0  0  0  0
 44 46  1  0  0  0  0
 46 47  1  0  0  0  0
 46 55  1  0  0  0  0
 47 48  1  0  0  0  0
 47 53  1  0  0  0  0
 47 85  1  0  0  0  0
 48 49  1  0  0  0  0
 48 86  1  0  0  0  0
 48 87  1  0  0  0  0
 49 50  1  0  0  0  0
 49 88  1  0  0  0  0
 49 89  1  0  0  0  0
 50 51  2  0  0  0  0
 50 52  1  0  0  0  0
 52 53  1  0  0  0  0
 52 90  1  0  0  0  0
 53 54  2  0  0  0  0
 55 56  2  0  0  0  0
M  END
$$$$
protac3895RUN2
  chem.cr 07102519423D
protac3895RUN2
 90 96  0  0  0  0  0  0  0  0999 V2000
   -4.8146    4.9649   -0.8118 O   0  0  0  0  0  0  0  0  0  0  0  0
   -4.3388    3.8384   -0.8624 C   0  0  0  0  0  0  0  0  0  0  0  0
   -4.5815    2.7879    0.1922 C   0  0  0  0  0  0  0  0  0  0  0  0
   -3.5332    2.7273    1.2315 N   0  0  0  0  0  0  0  0  0  0  0  0
   -2.6810    3.7838    1.5755 C   0  0  0  0  0  0  0  0  0  0  0  0
   -1.7283    3.3572    2.4354 C   0  0  0  0  0  0  0  0  0  0  0  0
   -0.6296    4.0792    2.8292 C   0  0  0  0  0  0  0  0  0  0  0  0
    0.5225    3.7265    3.4556 C   0  0  0  0  0  0  0  0  0  0  0  0
    0.9696    2.4637    3.7973 C   0  0  0  0  0  0  0  0  0  0  0  0
    1.1308    1.4861    2.7939 C   0  0  0  0  0  0  0  0  0  0  0  0
    1.6222    0.2089    3.1129 C   0  0  0  0  0  0  0  0  0  0  0  0
    1.9781   -0.0929    4.4365 C   0  0  0  0  0  0  0  0  0  0  0  0
    2.6045   -1.6865    4.8366 Cl  0  0  0  0  0  0  0  0  0  0  0  0
    1.8346    0.8753    5.4427 C   0  0  0  0  0  0  0  0  0  0  0  0
    1.3325    2.1484    5.1307 C   0  0  0  0  0  0  0  0  0  0  0  0
    1.0972    3.3021    6.4459 Cl  0  0  0  0  0  0  0  0  0  0  0  0
    1.3545    4.7740    3.5653 C   0  0  0  0  0  0  0  0  0  0  0  0
    2.5078    4.9003    3.9527 O   0  0  0  0  0  0  0  0  0  0  0  0
    0.7244    5.8864    3.0499 N   0  0  0  0  0  0  0  0  0  0  0  0
   -0.4786    5.4011    2.5527 C   0  0  0  0  0  0  0  0  0  0  0  0
   -1.1651    6.2194    1.9579 O   0  0  0  0  0  0  0  0  0  0  0  0
   -2.0892    2.0326    2.7566 C   0  0  0  0  0  0  0  0  0  0  0  0
   -1.7499    1.1972    3.8414 C   0  0  0  0  0  0  0  0  0  0  0  0
   -2.3384   -0.0804    3.9575 C   0  0  0  0  0  0  0  0  0  0  0  0
   -3.3450   -0.4954    3.0590 C   0  0  0  0  0  0  0  0  0  0  0  0
   -3.8060    0.3918    2.0707 C   0  0  0  0  0  0  0  0  0  0  0  0
   -3.1702    1.6352    1.9588 C   0  0  0  0  0  0  0  0  0  0  0  0
   -3.2895    3.5843   -1.7538 N   0  0  0  0  0  0  0  0  0  0  0  0
   -2.6894    4.6229   -2.6031 C   0  0  0  0  0  0  0  0  0  0  0  0
   -1.8533    3.9982   -3.7453 C   0  0  0  0  0  0  0  0  0  0  0  0
   -1.0975    2.8887   -3.2279 O   0  0  0  0  0  0  0  0  0  0  0  0
    0.0155    3.2004   -2.3755 C   0  0  0  0  0  0  0  0  0  0  0  0
    0.3256    1.9324   -1.5479 C   0  0  0  0  0  0  0  0  0  0  0  0
    0.8675    0.9060   -2.3955 O   0  0  0  0  0  0  0  0  0  0  0  0
    2.2368    1.0765   -2.7882 C   0  0  0  0  0  0  0  0  0  0  0  0
    2.6565   -0.1515   -3.6175 C   0  0  0  0  0  0  0  0  0  0  0  0
    2.4669   -1.3907   -2.8464 N   0  0  0  0  0  0  0  0  0  0  0  0
    3.1674   -2.5795   -3.0262 C   0  0  0  0  0  0  0  0  0  0  0  0
    4.2656   -2.7113   -3.9142 C   0  0  0  0  0  0  0  0  0  0  0  0
    4.9513   -3.9439   -4.0552 C   0  0  0  0  0  0  0  0  0  0  0  0
    4.5519   -5.0748   -3.3139 C   0  0  0  0  0  0  0  0  0  0  0  0
    3.4690   -4.9324   -2.4379 C   0  0  0  0  0  0  0  0  0  0  0  0
    2.7901   -3.7216   -2.3030 C   0  0  0  0  0  0  0  0  0  0  0  0
    1.7438   -3.9048   -1.4233 C   0  0  0  0  0  0  0  0  0  0  0  0
    0.7254   -3.2268   -1.3638 O   0  0  0  0  0  0  0  0  0  0  0  0
    1.7574   -5.2552   -1.0175 N   0  0  0  0  0  0  0  0  0  0  0  0
    0.8875   -5.9210   -0.0168 C   0  0  0  0  0  0  0  0  0  0  0  0
   -0.0254   -6.9812   -0.6771 C   0  0  0  0  0  0  0  0  0  0  0  0
   -1.1410   -6.2802   -1.4831 C   0  0  0  0  0  0  0  0  0  0  0  0
   -1.8862   -5.2546   -0.6515 C   0  0  0  0  0  0  0  0  0  0  0  0
   -3.0639   -4.9808   -0.8314 O   0  0  0  0  0  0  0  0  0  0  0  0
   -1.2799   -4.7220    0.4933 N   0  0  0  0  0  0  0  0  0  0  0  0
    0.0639   -4.9536    0.8271 C   0  0  0  0  0  0  0  0  0  0  0  0
    0.4442   -4.5089    1.9002 O   0  0  0  0  0  0  0  0  0  0  0  0
    2.8588   -5.8583   -1.6307 C   0  0  0  0  0  0  0  0  0  0  0  0
    3.1832   -7.0217   -1.4239 O   0  0  0  0  0  0  0  0  0  0  0  0
   -5.5398    2.9896    0.6829 H   0  0  0  0  0  0  0  0  0  0  0  0
   -4.6473    1.8067   -0.2903 H   0  0  0  0  0  0  0  0  0  0  0  0
   -2.8060    4.7371    1.0645 H   0  0  0  0  0  0  0  0  0  0  0  0
    0.8570    1.7135    1.7685 H   0  0  0  0  0  0  0  0  0  0  0  0
    1.7273   -0.5457    2.3413 H   0  0  0  0  0  0  0  0  0  0  0  0
    2.1041    0.6358    6.4650 H   0  0  0  0  0  0  0  0  0  0  0  0
    1.2062    6.6942    2.6862 H   0  0  0  0  0  0  0  0  0  0  0  0
   -1.0853    1.5247    4.6233 H   0  0  0  0  0  0  0  0  0  0  0  0
   -2.0388   -0.7361    4.7720 H   0  0  0  0  0  0  0  0  0  0  0  0
   -3.8106   -1.4712    3.1750 H   0  0  0  0  0  0  0  0  0  0  0  0
   -4.6475    0.1282    1.4390 H   0  0  0  0  0  0  0  0  0  0  0  0
   -2.8094    2.6916   -1.6985 H   0  0  0  0  0  0  0  0  0  0  0  0
   -2.0652    5.2745   -1.9766 H   0  0  0  0  0  0  0  0  0  0  0  0
   -3.4844    5.2491   -3.0331 H   0  0  0  0  0  0  0  0  0  0  0  0
   -1.2005    4.7515   -4.2071 H   0  0  0  0  0  0  0  0  0  0  0  0
   -2.5449    3.6369   -4.5188 H   0  0  0  0  0  0  0  0  0  0  0  0
   -0.2306    4.0117   -1.6808 H   0  0  0  0  0  0  0  0  0  0  0  0
    0.8821    3.5143   -2.9706 H   0  0  0  0  0  0  0  0  0  0  0  0
   -0.6041    1.5790   -1.0838 H   0  0  0  0  0  0  0  0  0  0  0  0
    1.0275    2.1763   -0.7393 H   0  0  0  0  0  0  0  0  0  0  0  0
    2.3654    1.9763   -3.4042 H   0  0  0  0  0  0  0  0  0  0  0  0
    2.8841    1.1616   -1.9049 H   0  0  0  0  0  0  0  0  0  0  0  0
    2.0584   -0.2000   -4.5372 H   0  0  0  0  0  0  0  0  0  0  0  0
    3.7095   -0.0261   -3.8955 H   0  0  0  0  0  0  0  0  0  0  0  0
    1.6632   -1.4347   -2.2242 H   0  0  0  0  0  0  0  0  0  0  0  0
    4.5987   -1.8670   -4.5091 H   0  0  0  0  0  0  0  0  0  0  0  0
    5.7852   -4.0204   -4.7486 H   0  0  0  0  0  0  0  0  0  0  0  0
    5.0570   -6.0331   -3.4209 H   0  0  0  0  0  0  0  0  0  0  0  0
    1.5564   -6.4483    0.6741 H   0  0  0  0  0  0  0  0  0  0  0  0
   -0.4831   -7.6011    0.1081 H   0  0  0  0  0  0  0  0  0  0  0  0
    0.5569   -7.6581   -1.3170 H   0  0  0  0  0  0  0  0  0  0  0  0
   -0.7114   -5.7733   -2.3569 H   0  0  0  0  0  0  0  0  0  0  0  0
   -1.8511   -7.0244   -1.8626 H   0  0  0  0  0  0  0  0  0  0  0  0
   -1.8103   -4.0827    1.0637 H   0  0  0  0  0  0  0  0  0  0  0  0
  1  2  2  0  0  0  0
  2  3  1  0  0  0  0
  2 28  1  0  0  0  0
  3  4  1  0  0  0  0
  3 57  1  0  0  0  0
  3 58  1  0  0  0  0
  4  5  1  0  0  0  0
  4 27  1  0  0  0  0
  5  6  2  0  0  0  0
  5 59  1  0  0  0  0
  6  7  1  0  0  0  0
  6 22  1  0  0  0  0
  7  8  2  0  0  0  0
  7 20  1  0  0  0  0
  8  9  1  0  0  0  0
  8 17  1  0  0  0  0
  9 10  2  0  0  0  0
  9 15  1  0  0  0  0
 10 11  1  0  0  0  0
 10 60  1  0  0  0  0
 11 12  2  0  0  0  0
 11 61  1  0  0  0  0
 12 13  1  0  0  0  0
 12 14  1  0  0  0  0
 14 15  2  0  0  0  0
 14 62  1  0  0  0  0
 15 16  1  0  0  0  0
 17 18  2  0  0  0  0
 17 19  1  0  0  0  0
 19 20  1  0  0  0  0
 19 63  1  0  0  0  0
 20 21  2  0  0  0  0
 22 23  2  0  0  0  0
 22 27  1  0  0  0  0
 23 24  1  0  0  0  0
 23 64  1  0  0  0  0
 24 25  2  0  0  0  0
 24 65  1  0  0  0  0
 25 26  1  0  0  0  0
 25 66  1  0  0  0  0
 26 27  2  0  0  0  0
 26 67  1  0  0  0  0
 28 29  1  0  0  0  0
 28 68  1  0  0  0  0
 29 30  1  0  0  0  0
 29 69  1  0  0  0  0
 29 70  1  0  0  0  0
 30 31  1  0  0  0  0
 30 71  1  0  0  0  0
 30 72  1  0  0  0  0
 31 32  1  0  0  0  0
 32 33  1  0  0  0  0
 32 73  1  0  0  0  0
 32 74  1  0  0  0  0
 33 34  1  0  0  0  0
 33 75  1  0  0  0  0
 33 76  1  0  0  0  0
 34 35  1  0  0  0  0
 35 36  1  0  0  0  0
 35 77  1  0  0  0  0
 35 78  1  0  0  0  0
 36 37  1  0  0  0  0
 36 79  1  0  0  0  0
 36 80  1  0  0  0  0
 37 38  1  0  0  0  0
 37 81  1  0  0  0  0
 38 39  2  0  0  0  0
 38 43  1  0  0  0  0
 39 40  1  0  0  0  0
 39 82  1  0  0  0  0
 40 41  2  0  0  0  0
 40 83  1  0  0  0  0
 41 42  1  0  0  0  0
 41 84  1  0  0  0  0
 42 43  2  0  0  0  0
 42 55  1  0  0  0  0
 43 44  1  0  0  0  0
 44 45  2  0  0  0  0
 44 46  1  0  0  0  0
 46 47  1  0  0  0  0
 46 55  1  0  0  0  0
 47 48  1  0  0  0  0
 47 53  1  0  0  0  0
 47 85  1  0  0  0  0
 48 49  1  0  0  0  0
 48 86  1  0  0  0  0
 48 87  1  0  0  0  0
 49 50  1  0  0  0  0
 49 88  1  0  0  0  0
 49 89  1  0  0  0  0
 50 51  2  0  0  0  0
 50 52  1  0  0  0  0
 52 53  1  0  0  0  0
 52 90  1  0  0  0  0
 53 54  2  0  0  0  0
 55 56  2  0  0  0  0
M  END
$$$$
protac3895RUN2
  chem.cr 07102519423D
protac3895RUN2
 90 96  0  0  0  0  0  0  0  0999 V2000
   -3.7434    5.7010   -2.2625 O   0  0  0  0  0  0  0  0  0  0  0  0
   -3.6808    4.9788   -1.2767 C   0  0  0  0  0  0  0  0  0  0  0  0
   -4.1628    5.3731    0.0983 C   0  0  0  0  0  0  0  0  0  0  0  0
   -3.2576    4.9381    1.1809 N   0  0  0  0  0  0  0  0  0  0  0  0
   -2.3501    5.7761    1.8279 C   0  0  0  0  0  0  0  0  0  0  0  0
   -1.7181    5.1131    2.8238 C   0  0  0  0  0  0  0  0  0  0  0  0
   -0.6542    5.5897    3.5495 C   0  0  0  0  0  0  0  0  0  0  0  0
    0.2439    4.9848    4.3740 C   0  0  0  0  0  0  0  0  0  0  0  0
    0.4070    3.6331    4.6257 C   0  0  0  0  0  0  0  0  0  0  0  0
    0.6685    2.7561    3.5536 C   0  0  0  0  0  0  0  0  0  0  0  0
    0.8683    1.3834    3.7854 C   0  0  0  0  0  0  0  0  0  0  0  0
    0.8252    0.8812    5.0945 C   0  0  0  0  0  0  0  0  0  0  0  0
    1.0752   -0.8337    5.3850 Cl  0  0  0  0  0  0  0  0  0  0  0  0
    0.5835    1.7457    6.1733 C   0  0  0  0  0  0  0  0  0  0  0  0
    0.3761    3.1159    5.9460 C   0  0  0  0  0  0  0  0  0  0  0  0
    0.0099    4.1454    7.3320 Cl  0  0  0  0  0  0  0  0  0  0  0  0
    1.1525    5.8616    4.8215 C   0  0  0  0  0  0  0  0  0  0  0  0
    2.1755    5.7516    5.4836 O   0  0  0  0  0  0  0  0  0  0  0  0
    0.8374    7.1140    4.3325 N   0  0  0  0  0  0  0  0  0  0  0  0
   -0.2540    6.8875    3.5028 C   0  0  0  0  0  0  0  0  0  0  0  0
   -0.6622    7.8729    2.9012 O   0  0  0  0  0  0  0  0  0  0  0  0
   -2.3470    3.8516    2.8796 C   0  0  0  0  0  0  0  0  0  0  0  0
   -2.3972    2.8641    3.8840 C   0  0  0  0  0  0  0  0  0  0  0  0
   -3.1601    1.6948    3.6766 C   0  0  0  0  0  0  0  0  0  0  0  0
   -3.9562    1.5453    2.5222 C   0  0  0  0  0  0  0  0  0  0  0  0
   -4.0493    2.5987    1.5969 C   0  0  0  0  0  0  0  0  0  0  0  0
   -3.2517    3.7311    1.8189 C   0  0  0  0  0  0  0  0  0  0  0  0
   -3.2120    3.6676   -1.4039 N   0  0  0  0  0  0  0  0  0  0  0  0
   -2.5991    3.0967   -2.6079 C   0  0  0  0  0  0  0  0  0  0  0  0
   -2.7589    1.5584   -2.5924 C   0  0  0  0  0  0  0  0  0  0  0  0
   -2.4943    1.0734   -1.2618 O   0  0  0  0  0  0  0  0  0  0  0  0
   -1.1196    1.0097   -0.8423 C   0  0  0  0  0  0  0  0  0  0  0  0
   -0.6245   -0.4421   -1.0436 C   0  0  0  0  0  0  0  0  0  0  0  0
   -0.1906   -0.6560   -2.3984 O   0  0  0  0  0  0  0  0  0  0  0  0
    1.0909   -0.1076   -2.7436 C   0  0  0  0  0  0  0  0  0  0  0  0
    1.5671   -0.8110   -4.0268 C   0  0  0  0  0  0  0  0  0  0  0  0
    1.7087   -2.2526   -3.7679 N   0  0  0  0  0  0  0  0  0  0  0  0
    2.7459   -3.0657   -4.2106 C   0  0  0  0  0  0  0  0  0  0  0  0
    3.6312   -2.6915   -5.2502 C   0  0  0  0  0  0  0  0  0  0  0  0
    4.6714   -3.5569   -5.6717 C   0  0  0  0  0  0  0  0  0  0  0  0
    4.8466   -4.8172   -5.0649 C   0  0  0  0  0  0  0  0  0  0  0  0
    3.9628   -5.1787   -4.0411 C   0  0  0  0  0  0  0  0  0  0  0  0
    2.9442   -4.3233   -3.6222 C   0  0  0  0  0  0  0  0  0  0  0  0
    2.2640   -4.9474   -2.6005 C   0  0  0  0  0  0  0  0  0  0  0  0
    1.2312   -4.5826   -2.0507 O   0  0  0  0  0  0  0  0  0  0  0  0
    2.8305   -6.2153   -2.3920 N   0  0  0  0  0  0  0  0  0  0  0  0
    2.6744   -7.0662   -1.1898 C   0  0  0  0  0  0  0  0  0  0  0  0
    1.5602   -8.1219   -1.3787 C   0  0  0  0  0  0  0  0  0  0  0  0
    0.1682   -7.5050   -1.1223 C   0  0  0  0  0  0  0  0  0  0  0  0
    0.1007   -6.8008    0.2157 C   0  0  0  0  0  0  0  0  0  0  0  0
   -0.8993   -6.7853    0.9170 O   0  0  0  0  0  0  0  0  0  0  0  0
    1.2721   -6.2651    0.7656 N   0  0  0  0  0  0  0  0  0  0  0  0
    2.5040   -6.2578    0.0928 C   0  0  0  0  0  0  0  0  0  0  0  0
    3.4406   -5.7403    0.6852 O   0  0  0  0  0  0  0  0  0  0  0  0
    3.9005   -6.3276   -3.2877 C   0  0  0  0  0  0  0  0  0  0  0  0
    4.5436   -7.3631   -3.4189 O   0  0  0  0  0  0  0  0  0  0  0  0
   -4.2705    6.4640    0.1341 H   0  0  0  0  0  0  0  0  0  0  0  0
   -5.1553    4.9428    0.2709 H   0  0  0  0  0  0  0  0  0  0  0  0
   -2.1748    6.7686    1.4189 H   0  0  0  0  0  0  0  0  0  0  0  0
    0.7026    3.1438    2.5392 H   0  0  0  0  0  0  0  0  0  0  0  0
    1.0569    0.7085    2.9546 H   0  0  0  0  0  0  0  0  0  0  0  0
    0.5540    1.3554    7.1869 H   0  0  0  0  0  0  0  0  0  0  0  0
    1.5137    7.8455    4.1782 H   0  0  0  0  0  0  0  0  0  0  0  0
   -1.9094    2.9950    4.8361 H   0  0  0  0  0  0  0  0  0  0  0  0
   -3.1609    0.9154    4.4340 H   0  0  0  0  0  0  0  0  0  0  0  0
   -4.5467    0.6431    2.3809 H   0  0  0  0  0  0  0  0  0  0  0  0
   -4.7337    2.5379    0.7564 H   0  0  0  0  0  0  0  0  0  0  0  0
   -3.1978    3.0919   -0.5673 H   0  0  0  0  0  0  0  0  0  0  0  0
   -1.5365    3.3678   -2.6321 H   0  0  0  0  0  0  0  0  0  0  0  0
   -3.0764    3.5163   -3.5041 H   0  0  0  0  0  0  0  0  0  0  0  0
   -2.1044    1.0866   -3.3367 H   0  0  0  0  0  0  0  0  0  0  0  0
   -3.7965    1.3217   -2.8593 H   0  0  0  0  0  0  0  0  0  0  0  0
   -1.0629    1.2466    0.2288 H   0  0  0  0  0  0  0  0  0  0  0  0
   -0.4839    1.7270   -1.3766 H   0  0  0  0  0  0  0  0  0  0  0  0
   -1.4439   -1.1312   -0.8013 H   0  0  0  0  0  0  0  0  0  0  0  0
    0.1940   -0.6530   -0.3422 H   0  0  0  0  0  0  0  0  0  0  0  0
    1.0242    0.9749   -2.9091 H   0  0  0  0  0  0  0  0  0  0  0  0
    1.8256   -0.2947   -1.9482 H   0  0  0  0  0  0  0  0  0  0  0  0
    0.8402   -0.6465   -4.8328 H   0  0  0  0  0  0  0  0  0  0  0  0
    2.5274   -0.3748   -4.3259 H   0  0  0  0  0  0  0  0  0  0  0  0
    1.0938   -2.6610   -3.0680 H   0  0  0  0  0  0  0  0  0  0  0  0
    3.5167   -1.7361   -5.7494 H   0  0  0  0  0  0  0  0  0  0  0  0
    5.3387   -3.2471   -6.4718 H   0  0  0  0  0  0  0  0  0  0  0  0
    5.6404   -5.4915   -5.3771 H   0  0  0  0  0  0  0  0  0  0  0  0
    3.6176   -7.6166   -1.0671 H   0  0  0  0  0  0  0  0  0  0  0  0
    1.7216   -8.9408   -0.6644 H   0  0  0  0  0  0  0  0  0  0  0  0
    1.6134   -8.5572   -2.3856 H   0  0  0  0  0  0  0  0  0  0  0  0
   -0.0801   -6.7889   -1.9157 H   0  0  0  0  0  0  0  0  0  0  0  0
   -0.6009   -8.2869   -1.1578 H   0  0  0  0  0  0  0  0  0  0  0  0
    1.2148   -5.8092    1.6630 H   0  0  0  0  0  0  0  0  0  0  0  0
  1  2  2  0  0  0  0
  2  3  1  0  0  0  0
  2 28  1  0  0  0  0
  3  4  1  0  0  0  0
  3 57  1  0  0  0  0
  3 58  1  0  0  0  0
  4  5  1  0  0  0  0
  4 27  1  0  0  0  0
  5  6  2  0  0  0  0
  5 59  1  0  0  0  0
  6  7  1  0  0  0  0
  6 22  1  0  0  0  0
  7  8  2  0  0  0  0
  7 20  1  0  0  0  0
  8  9  1  0  0  0  0
  8 17  1  0  0  0  0
  9 10  2  0  0  0  0
  9 15  1  0  0  0  0
 10 11  1  0  0  0  0
 10 60  1  0  0  0  0
 11 12  2  0  0  0  0
 11 61  1  0  0  0  0
 12 13  1  0  0  0  0
 12 14  1  0  0  0  0
 14 15  2  0  0  0  0
 14 62  1  0  0  0  0
 15 16  1  0  0  0  0
 17 18  2  0  0  0  0
 17 19  1  0  0  0  0
 19 20  1  0  0  0  0
 19 63  1  0  0  0  0
 20 21  2  0  0  0  0
 22 23  2  0  0  0  0
 22 27  1  0  0  0  0
 23 24  1  0  0  0  0
 23 64  1  0  0  0  0
 24 25  2  0  0  0  0
 24 65  1  0  0  0  0
 25 26  1  0  0  0  0
 25 66  1  0  0  0  0
 26 27  2  0  0  0  0
 26 67  1  0  0  0  0
 28 29  1  0  0  0  0
 28 68  1  0  0  0  0
 29 30  1  0  0  0  0
 29 69  1  0  0  0  0
 29 70  1  0  0  0  0
 30 31  1  0  0  0  0
 30 71  1  0  0  0  0
 30 72  1  0  0  0  0
 31 32  1  0  0  0  0
 32 33  1  0  0  0  0
 32 73  1  0  0  0  0
 32 74  1  0  0  0  0
 33 34  1  0  0  0  0
 33 75  1  0  0  0  0
 33 76  1  0  0  0  0
 34 35  1  0  0  0  0
 35 36  1  0  0  0  0
 35 77  1  0  0  0  0
 35 78  1  0  0  0  0
 36 37  1  0  0  0  0
 36 79  1  0  0  0  0
 36 80  1  0  0  0  0
 37 38  1  0  0  0  0
 37 81  1  0  0  0  0
 38 39  2  0  0  0  0
 38 43  1  0  0  0  0
 39 40  1  0  0  0  0
 39 82  1  0  0  0  0
 40 41  2  0  0  0  0
 40 83  1  0  0  0  0
 41 42  1  0  0  0  0
 41 84  1  0  0  0  0
 42 43  2  0  0  0  0
 42 55  1  0  0  0  0
 43 44  1  0  0  0  0
 44 45  2  0  0  0  0
 44 46  1  0  0  0  0
 46 47  1  0  0  0  0
 46 55  1  0  0  0  0
 47 48  1  0  0  0  0
 47 53  1  0  0  0  0
 47 85  1  0  0  0  0
 48 49  1  0  0  0  0
 48 86  1  0  0  0  0
 48 87  1  0  0  0  0
 49 50  1  0  0  0  0
 49 88  1  0  0  0  0
 49 89  1  0  0  0  0
 50 51  2  0  0  0  0
 50 52  1  0  0  0  0
 52 53  1  0  0  0  0
 52 90  1  0  0  0  0
 53 54  2  0  0  0  0
 55 56  2  0  0  0  0
M  END
$$$$
protac3895RUN2
  chem.cr 07102519423D
protac3895RUN2
 90 96  0  0  0  0  0  0  0  0999 V2000
   -1.5986    6.6719   -1.3042 O   0  0  0  0  0  0  0  0  0  0  0  0
   -2.0914    6.3272   -0.2390 C   0  0  0  0  0  0  0  0  0  0  0  0
   -3.1167    7.1694    0.5019 C   0  0  0  0  0  0  0  0  0  0  0  0
   -3.1536    6.9824    1.9718 N   0  0  0  0  0  0  0  0  0  0  0  0
   -2.1931    7.5848    2.8015 C   0  0  0  0  0  0  0  0  0  0  0  0
   -1.8681    6.7659    3.8283 C   0  0  0  0  0  0  0  0  0  0  0  0
   -0.8510    6.9483    4.7217 C   0  0  0  0  0  0  0  0  0  0  0  0
   -0.2069    6.0721    5.5371 C   0  0  0  0  0  0  0  0  0  0  0  0
   -0.3050    4.6885    5.5133 C   0  0  0  0  0  0  0  0  0  0  0  0
   -0.0990    4.0177    4.2901 C   0  0  0  0  0  0  0  0  0  0  0  0
   -0.1594    2.6153    4.2189 C   0  0  0  0  0  0  0  0  0  0  0  0
   -0.4102    1.8688    5.3788 C   0  0  0  0  0  0  0  0  0  0  0  0
   -0.4800    0.1131    5.2924 Cl  0  0  0  0  0  0  0  0  0  0  0  0
   -0.6001    2.5191    6.6073 C   0  0  0  0  0  0  0  0  0  0  0  0
   -0.5461    3.9232    6.6824 C   0  0  0  0  0  0  0  0  0  0  0  0
   -0.8503    4.6923    8.2418 Cl  0  0  0  0  0  0  0  0  0  0  0  0
    0.7756    6.6788    6.2131 C   0  0  0  0  0  0  0  0  0  0  0  0
    1.6750    6.2709    6.9375 O   0  0  0  0  0  0  0  0  0  0  0  0
    0.7657    8.0238    5.8897 N   0  0  0  0  0  0  0  0  0  0  0  0
   -0.2102    8.1291    4.9041 C   0  0  0  0  0  0  0  0  0  0  0  0
   -0.3428    9.2367    4.3955 O   0  0  0  0  0  0  0  0  0  0  0  0
   -2.7596    5.6858    3.7349 C   0  0  0  0  0  0  0  0  0  0  0  0
   -3.1537    4.7222    4.6826 C   0  0  0  0  0  0  0  0  0  0  0  0
   -4.1473    3.7783    4.3433 C   0  0  0  0  0  0  0  0  0  0  0  0
   -4.8243    3.8590    3.1077 C   0  0  0  0  0  0  0  0  0  0  0  0
   -4.5425    4.9164    2.2233 C   0  0  0  0  0  0  0  0  0  0  0  0
   -3.5207    5.8100    2.5747 C   0  0  0  0  0  0  0  0  0  0  0  0
   -1.9520    4.9912    0.1719 N   0  0  0  0  0  0  0  0  0  0  0  0
   -1.2256    3.9478   -0.5729 C   0  0  0  0  0  0  0  0  0  0  0  0
   -1.9676    2.5927   -0.4782 C   0  0  0  0  0  0  0  0  0  0  0  0
   -1.0190    1.5549   -0.1593 O   0  0  0  0  0  0  0  0  0  0  0  0
   -0.2743    0.9682   -1.2439 C   0  0  0  0  0  0  0  0  0  0  0  0
   -1.2100    0.0174   -2.0247 C   0  0  0  0  0  0  0  0  0  0  0  0
   -0.4481   -0.6972   -3.0110 O   0  0  0  0  0  0  0  0  0  0  0  0
    0.2266   -1.8942   -2.5859 C   0  0  0  0  0  0  0  0  0  0  0  0
    0.9697   -2.3875   -3.8394 C   0  0  0  0  0  0  0  0  0  0  0  0
    1.4841   -3.7690   -3.7443 N   0  0  0  0  0  0  0  0  0  0  0  0
    2.0890   -4.4264   -4.8170 C   0  0  0  0  0  0  0  0  0  0  0  0
    2.2835   -3.7873   -6.0693 C   0  0  0  0  0  0  0  0  0  0  0  0
    2.8910   -4.4564   -7.1575 C   0  0  0  0  0  0  0  0  0  0  0  0
    3.3102   -5.7926   -7.0302 C   0  0  0  0  0  0  0  0  0  0  0  0
    3.1208   -6.4153   -5.7923 C   0  0  0  0  0  0  0  0  0  0  0  0
    2.5321   -5.7584   -4.7077 C   0  0  0  0  0  0  0  0  0  0  0  0
    2.4960   -6.6410   -3.6443 C   0  0  0  0  0  0  0  0  0  0  0  0
    1.7112   -6.6106   -2.7034 O   0  0  0  0  0  0  0  0  0  0  0  0
    3.0601   -7.8575   -4.0715 N   0  0  0  0  0  0  0  0  0  0  0  0
    3.6022   -8.9399   -3.2201 C   0  0  0  0  0  0  0  0  0  0  0  0
    2.7142  -10.2014   -3.3174 C   0  0  0  0  0  0  0  0  0  0  0  0
    1.5002  -10.0577   -2.3779 C   0  0  0  0  0  0  0  0  0  0  0  0
    1.9496   -9.8171   -0.9570 C   0  0  0  0  0  0  0  0  0  0  0  0
    1.4717  -10.3966    0.0085 O   0  0  0  0  0  0  0  0  0  0  0  0
    3.0815   -9.0220   -0.7350 N   0  0  0  0  0  0  0  0  0  0  0  0
    3.8718   -8.5140   -1.7782 C   0  0  0  0  0  0  0  0  0  0  0  0
    4.8636   -7.8776   -1.4456 O   0  0  0  0  0  0  0  0  0  0  0  0
    3.4389   -7.6894   -5.4042 C   0  0  0  0  0  0  0  0  0  0  0  0
    3.9850   -8.5701   -6.0579 O   0  0  0  0  0  0  0  0  0  0  0  0
   -2.9178    8.2255    0.2850 H   0  0  0  0  0  0  0  0  0  0  0  0
   -4.1081    6.9413    0.0941 H   0  0  0  0  0  0  0  0  0  0  0  0
   -1.7339    8.5180    2.4871 H   0  0  0  0  0  0  0  0  0  0  0  0
    0.1086    4.5901    3.3897 H   0  0  0  0  0  0  0  0  0  0  0  0
   -0.0073    2.1123    3.2682 H   0  0  0  0  0  0  0  0  0  0  0  0
   -0.7888    1.9367    7.5041 H   0  0  0  0  0  0  0  0  0  0  0  0
    1.5814    8.6163    5.9349 H   0  0  0  0  0  0  0  0  0  0  0  0
   -2.7505    4.7213    5.6846 H   0  0  0  0  0  0  0  0  0  0  0  0
   -4.4211    3.0084    5.0609 H   0  0  0  0  0  0  0  0  0  0  0  0
   -5.6089    3.1426    2.8711 H   0  0  0  0  0  0  0  0  0  0  0  0
   -5.1219    5.0521    1.3157 H   0  0  0  0  0  0  0  0  0  0  0  0
   -2.3678    4.7435    1.0644 H   0  0  0  0  0  0  0  0  0  0  0  0
   -0.2193    3.8487   -0.1439 H   0  0  0  0  0  0  0  0  0  0  0  0
   -1.1155    4.2430   -1.6261 H   0  0  0  0  0  0  0  0  0  0  0  0
   -2.5103    2.3915   -1.4091 H   0  0  0  0  0  0  0  0  0  0  0  0
   -2.7164    2.6474    0.3236 H   0  0  0  0  0  0  0  0  0  0  0  0
    0.5719    0.3984   -0.8405 H   0  0  0  0  0  0  0  0  0  0  0  0
    0.1203    1.7365   -1.9204 H   0  0  0  0  0  0  0  0  0  0  0  0
   -1.9756    0.6151   -2.5320 H   0  0  0  0  0  0  0  0  0  0  0  0
   -1.7199   -0.6740   -1.3405 H   0  0  0  0  0  0  0  0  0  0  0  0
    0.9360   -1.7002   -1.7706 H   0  0  0  0  0  0  0  0  0  0  0  0
   -0.4985   -2.6497   -2.2539 H   0  0  0  0  0  0  0  0  0  0  0  0
    0.2718   -2.3236   -4.6860 H   0  0  0  0  0  0  0  0  0  0  0  0
    1.8020   -1.6993   -4.0419 H   0  0  0  0  0  0  0  0  0  0  0  0
    1.3213   -4.3108   -2.9024 H   0  0  0  0  0  0  0  0  0  0  0  0
    1.9623   -2.7633   -6.2186 H   0  0  0  0  0  0  0  0  0  0  0  0
    3.0312   -3.9397   -8.1014 H   0  0  0  0  0  0  0  0  0  0  0  0
    3.7621   -6.3323   -7.8609 H   0  0  0  0  0  0  0  0  0  0  0  0
    4.5843   -9.2028   -3.6378 H   0  0  0  0  0  0  0  0  0  0  0  0
    3.2999  -11.0835   -3.0221 H   0  0  0  0  0  0  0  0  0  0  0  0
    2.3907  -10.3637   -4.3544 H   0  0  0  0  0  0  0  0  0  0  0  0
    0.8658   -9.2207   -2.7001 H   0  0  0  0  0  0  0  0  0  0  0  0
    0.8810  -10.9620   -2.4192 H   0  0  0  0  0  0  0  0  0  0  0  0
    3.3542   -8.8249    0.2153 H   0  0  0  0  0  0  0  0  0  0  0  0
  1  2  2  0  0  0  0
  2  3  1  0  0  0  0
  2 28  1  0  0  0  0
  3  4  1  0  0  0  0
  3 57  1  0  0  0  0
  3 58  1  0  0  0  0
  4  5  1  0  0  0  0
  4 27  1  0  0  0  0
  5  6  2  0  0  0  0
  5 59  1  0  0  0  0
  6  7  1  0  0  0  0
  6 22  1  0  0  0  0
  7  8  2  0  0  0  0
  7 20  1  0  0  0  0
  8  9  1  0  0  0  0
  8 17  1  0  0  0  0
  9 10  2  0  0  0  0
  9 15  1  0  0  0  0
 10 11  1  0  0  0  0
 10 60  1  0  0  0  0
 11 12  2  0  0  0  0
 11 61  1  0  0  0  0
 12 13  1  0  0  0  0
 12 14  1  0  0  0  0
 14 15  2  0  0  0  0
 14 62  1  0  0  0  0
 15 16  1  0  0  0  0
 17 18  2  0  0  0  0
 17 19  1  0  0  0  0
 19 20  1  0  0  0  0
 19 63  1  0  0  0  0
 20 21  2  0  0  0  0
 22 23  2  0  0  0  0
 22 27  1  0  0  0  0
 23 24  1  0  0  0  0
 23 64  1  0  0  0  0
 24 25  2  0  0  0  0
 24 65  1  0  0  0  0
 25 26  1  0  0  0  0
 25 66  1  0  0  0  0
 26 27  2  0  0  0  0
 26 67  1  0  0  0  0
 28 29  1  0  0  0  0
 28 68  1  0  0  0  0
 29 30  1  0  0  0  0
 29 69  1  0  0  0  0
 29 70  1  0  0  0  0
 30 31  1  0  0  0  0
 30 71  1  0  0  0  0
 30 72  1  0  0  0  0
 31 32  1  0  0  0  0
 32 33  1  0  0  0  0
 32 73  1  0  0  0  0
 32 74  1  0  0  0  0
 33 34  1  0  0  0  0
 33 75  1  0  0  0  0
 33 76  1  0  0  0  0
 34 35  1  0  0  0  0
 35 36  1  0  0  0  0
 35 77  1  0  0  0  0
 35 78  1  0  0  0  0
 36 37  1  0  0  0  0
 36 79  1  0  0  0  0
 36 80  1  0  0  0  0
 37 38  1  0  0  0  0
 37 81  1  0  0  0  0
 38 39  2  0  0  0  0
 38 43  1  0  0  0  0
 39 40  1  0  0  0  0
 39 82  1  0  0  0  0
 40 41  2  0  0  0  0
 40 83  1  0  0  0  0
 41 42  1  0  0  0  0
 41 84  1  0  0  0  0
 42 43  2  0  0  0  0
 42 55  1  0  0  0  0
 43 44  1  0  0  0  0
 44 45  2  0  0  0  0
 44 46  1  0  0  0  0
 46 47  1  0  0  0  0
 46 55  1  0  0  0  0
 47 48  1  0  0  0  0
 47 53  1  0  0  0  0
 47 85  1  0  0  0  0
 48 49  1  0  0  0  0
 48 86  1  0  0  0  0
 48 87  1  0  0  0  0
 49 50  1  0  0  0  0
 49 88  1  0  0  0  0
 49 89  1  0  0  0  0
 50 51  2  0  0  0  0
 50 52  1  0  0  0  0
 52 53  1  0  0  0  0
 52 90  1  0  0  0  0
 53 54  2  0  0  0  0
 55 56  2  0  0  0  0
M  END
$$$$
protac3895RUN2
  chem.cr 07102519423D
protac3895RUN2
 90 96  0  0  0  0  0  0  0  0999 V2000
   -1.0437    5.5173   -1.4919 O   0  0  0  0  0  0  0  0  0  0  0  0
   -1.4098    5.3714   -0.3343 C   0  0  0  0  0  0  0  0  0  0  0  0
   -2.7663    5.8181    0.1582 C   0  0  0  0  0  0  0  0  0  0  0  0
   -2.8392    6.0931    1.6069 N   0  0  0  0  0  0  0  0  0  0  0  0
   -2.0867    7.0954    2.2270 C   0  0  0  0  0  0  0  0  0  0  0  0
   -1.9932    6.8625    3.5554 C   0  0  0  0  0  0  0  0  0  0  0  0
   -1.1966    7.5470    4.4364 C   0  0  0  0  0  0  0  0  0  0  0  0
   -0.7787    7.2600    5.6988 C   0  0  0  0  0  0  0  0  0  0  0  0
   -0.9425    6.0785    6.4027 C   0  0  0  0  0  0  0  0  0  0  0  0
   -0.4394    4.8821    5.8501 C   0  0  0  0  0  0  0  0  0  0  0  0
   -0.5438    3.6672    6.5504 C   0  0  0  0  0  0  0  0  0  0  0  0
   -1.1532    3.6387    7.8131 C   0  0  0  0  0  0  0  0  0  0  0  0
   -1.2933    2.1211    8.6882 Cl  0  0  0  0  0  0  0  0  0  0  0  0
   -1.6470    4.8224    8.3820 C   0  0  0  0  0  0  0  0  0  0  0  0
   -1.5342    6.0416    7.6904 C   0  0  0  0  0  0  0  0  0  0  0  0
   -2.2080    7.4927    8.4370 Cl  0  0  0  0  0  0  0  0  0  0  0  0
    0.0246    8.2231    6.1682 C   0  0  0  0  0  0  0  0  0  0  0  0
    0.6656    8.3573    7.2019 O   0  0  0  0  0  0  0  0  0  0  0  0
    0.1705    9.1867    5.1894 N   0  0  0  0  0  0  0  0  0  0  0  0
   -0.6053    8.7284    4.1322 C   0  0  0  0  0  0  0  0  0  0  0  0
   -0.6355    9.4529    3.1434 O   0  0  0  0  0  0  0  0  0  0  0  0
   -2.8271    5.7565    3.7962 C   0  0  0  0  0  0  0  0  0  0  0  0
   -3.4489    5.3046    4.9752 C   0  0  0  0  0  0  0  0  0  0  0  0
   -4.3407    4.2134    4.9203 C   0  0  0  0  0  0  0  0  0  0  0  0
   -4.6924    3.6322    3.6840 C   0  0  0  0  0  0  0  0  0  0  0  0
   -4.1966    4.1781    2.4856 C   0  0  0  0  0  0  0  0  0  0  0  0
   -3.2864    5.2410    2.5792 C   0  0  0  0  0  0  0  0  0  0  0  0
   -0.6795    4.5263    0.5149 N   0  0  0  0  0  0  0  0  0  0  0  0
    0.2133    3.4609    0.0299 C   0  0  0  0  0  0  0  0  0  0  0  0
   -0.2569    2.0979    0.5540 C   0  0  0  0  0  0  0  0  0  0  0  0
    0.6699    1.1017    0.1083 O   0  0  0  0  0  0  0  0  0  0  0  0
    0.3390   -0.2274    0.5378 C   0  0  0  0  0  0  0  0  0  0  0  0
    1.4078   -1.2127    0.0258 C   0  0  0  0  0  0  0  0  0  0  0  0
    1.1500   -1.4803   -1.3580 O   0  0  0  0  0  0  0  0  0  0  0  0
    1.8464   -2.6130   -1.8921 C   0  0  0  0  0  0  0  0  0  0  0  0
    1.4830   -2.6927   -3.3815 C   0  0  0  0  0  0  0  0  0  0  0  0
    1.8792   -3.9861   -3.9615 N   0  0  0  0  0  0  0  0  0  0  0  0
    1.5286   -4.3963   -5.2437 C   0  0  0  0  0  0  0  0  0  0  0  0
    1.0425   -3.4964   -6.2225 C   0  0  0  0  0  0  0  0  0  0  0  0
    0.6868   -3.9411   -7.5177 C   0  0  0  0  0  0  0  0  0  0  0  0
    0.8023   -5.3012   -7.8620 C   0  0  0  0  0  0  0  0  0  0  0  0
    1.2853   -6.1810   -6.8882 C   0  0  0  0  0  0  0  0  0  0  0  0
    1.6478   -5.7423   -5.6159 C   0  0  0  0  0  0  0  0  0  0  0  0
    2.0909   -6.8308   -4.8981 C   0  0  0  0  0  0  0  0  0  0  0  0
    2.1493   -6.9261   -3.6781 O   0  0  0  0  0  0  0  0  0  0  0  0
    1.9900   -7.9672   -5.7185 N   0  0  0  0  0  0  0  0  0  0  0  0
    2.7435   -9.2299   -5.5610 C   0  0  0  0  0  0  0  0  0  0  0  0
    1.8186  -10.3661   -5.0766 C   0  0  0  0  0  0  0  0  0  0  0  0
    1.5359  -10.2133   -3.5669 C   0  0  0  0  0  0  0  0  0  0  0  0
    2.8092  -10.0809   -2.7587 C   0  0  0  0  0  0  0  0  0  0  0  0
    2.9308  -10.5210   -1.6262 O   0  0  0  0  0  0  0  0  0  0  0  0
    3.9583   -9.5560   -3.3634 N   0  0  0  0  0  0  0  0  0  0  0  0
    3.9817   -9.0845   -4.6834 C   0  0  0  0  0  0  0  0  0  0  0  0
    5.0606   -8.6927   -5.1053 O   0  0  0  0  0  0  0  0  0  0  0  0
    1.4940   -7.5348   -6.9497 C   0  0  0  0  0  0  0  0  0  0  0  0
    1.2607   -8.3040   -7.8757 O   0  0  0  0  0  0  0  0  0  0  0  0
   -3.0480    6.7282   -0.3840 H   0  0  0  0  0  0  0  0  0  0  0  0
   -3.4983    5.0478   -0.1041 H   0  0  0  0  0  0  0  0  0  0  0  0
   -1.5853    7.8328    1.6043 H   0  0  0  0  0  0  0  0  0  0  0  0
    0.0370    4.8999    4.8742 H   0  0  0  0  0  0  0  0  0  0  0  0
   -0.1500    2.7522    6.1172 H   0  0  0  0  0  0  0  0  0  0  0  0
   -2.1181    4.7961    9.3598 H   0  0  0  0  0  0  0  0  0  0  0  0
    0.3992   10.1533    5.3594 H   0  0  0  0  0  0  0  0  0  0  0  0
   -3.3142    5.8151    5.9158 H   0  0  0  0  0  0  0  0  0  0  0  0
   -4.7964    3.8479    5.8368 H   0  0  0  0  0  0  0  0  0  0  0  0
   -5.4010    2.8074    3.6564 H   0  0  0  0  0  0  0  0  0  0  0  0
   -4.5496    3.8139    1.5268 H   0  0  0  0  0  0  0  0  0  0  0  0
   -0.9379    4.5333    1.4958 H   0  0  0  0  0  0  0  0  0  0  0  0
    1.2388    3.6587    0.3697 H   0  0  0  0  0  0  0  0  0  0  0  0
    0.2225    3.4401   -1.0694 H   0  0  0  0  0  0  0  0  0  0  0  0
   -1.2647    1.8911    0.1705 H   0  0  0  0  0  0  0  0  0  0  0  0
   -0.2984    2.1237    1.6502 H   0  0  0  0  0  0  0  0  0  0  0  0
   -0.6474   -0.5298    0.1612 H   0  0  0  0  0  0  0  0  0  0  0  0
    0.3172   -0.2709    1.6345 H   0  0  0  0  0  0  0  0  0  0  0  0
    1.3341   -2.1376    0.6115 H   0  0  0  0  0  0  0  0  0  0  0  0
    2.4111   -0.7902    0.1665 H   0  0  0  0  0  0  0  0  0  0  0  0
    2.9329   -2.5053   -1.7751 H   0  0  0  0  0  0  0  0  0  0  0  0
    1.5272   -3.5316   -1.3812 H   0  0  0  0  0  0  0  0  0  0  0  0
    0.3976   -2.5590   -3.4878 H   0  0  0  0  0  0  0  0  0  0  0  0
    1.9820   -1.8725   -3.9145 H   0  0  0  0  0  0  0  0  0  0  0  0
    2.2159   -4.7154   -3.3390 H   0  0  0  0  0  0  0  0  0  0  0  0
    0.9383   -2.4424   -5.9915 H   0  0  0  0  0  0  0  0  0  0  0  0
    0.3203   -3.2290   -8.2516 H   0  0  0  0  0  0  0  0  0  0  0  0
    0.5312   -5.6615   -8.8520 H   0  0  0  0  0  0  0  0  0  0  0  0
    3.1107   -9.5075   -6.5589 H   0  0  0  0  0  0  0  0  0  0  0  0
    2.3120  -11.3305   -5.2576 H   0  0  0  0  0  0  0  0  0  0  0  0
    0.8830  -10.3670   -5.6533 H   0  0  0  0  0  0  0  0  0  0  0  0
    0.9101   -9.3295   -3.3898 H   0  0  0  0  0  0  0  0  0  0  0  0
    0.9671  -11.0772   -3.2022 H   0  0  0  0  0  0  0  0  0  0  0  0
    4.7986   -9.4767   -2.8114 H   0  0  0  0  0  0  0  0  0  0  0  0
  1  2  2  0  0  0  0
  2  3  1  0  0  0  0
  2 28  1  0  0  0  0
  3  4  1  0  0  0  0
  3 57  1  0  0  0  0
  3 58  1  0  0  0  0
  4  5  1  0  0  0  0
  4 27  1  0  0  0  0
  5  6  2  0  0  0  0
  5 59  1  0  0  0  0
  6  7  1  0  0  0  0
  6 22  1  0  0  0  0
  7  8  2  0  0  0  0
  7 20  1  0  0  0  0
  8  9  1  0  0  0  0
  8 17  1  0  0  0  0
  9 10  2  0  0  0  0
  9 15  1  0  0  0  0
 10 11  1  0  0  0  0
 10 60  1  0  0  0  0
 11 12  2  0  0  0  0
 11 61  1  0  0  0  0
 12 13  1  0  0  0  0
 12 14  1  0  0  0  0
 14 15  2  0  0  0  0
 14 62  1  0  0  0  0
 15 16  1  0  0  0  0
 17 18  2  0  0  0  0
 17 19  1  0  0  0  0
 19 20  1  0  0  0  0
 19 63  1  0  0  0  0
 20 21  2  0  0  0  0
 22 23  2  0  0  0  0
 22 27  1  0  0  0  0
 23 24  1  0  0  0  0
 23 64  1  0  0  0  0
 24 25  2  0  0  0  0
 24 65  1  0  0  0  0
 25 26  1  0  0  0  0
 25 66  1  0  0  0  0
 26 27  2  0  0  0  0
 26 67  1  0  0  0  0
 28 29  1  0  0  0  0
 28 68  1  0  0  0  0
 29 30  1  0  0  0  0
 29 69  1  0  0  0  0
 29 70  1  0  0  0  0
 30 31  1  0  0  0  0
 30 71  1  0  0  0  0
 30 72  1  0  0  0  0
 31 32  1  0  0  0  0
 32 33  1  0  0  0  0
 32 73  1  0  0  0  0
 32 74  1  0  0  0  0
 33 34  1  0  0  0  0
 33 75  1  0  0  0  0
 33 76  1  0  0  0  0
 34 35  1  0  0  0  0
 35 36  1  0  0  0  0
 35 77  1  0  0  0  0
 35 78  1  0  0  0  0
 36 37  1  0  0  0  0
 36 79  1  0  0  0  0
 36 80  1  0  0  0  0
 37 38  1  0  0  0  0
 37 81  1  0  0  0  0
 38 39  2  0  0  0  0
 38 43  1  0  0  0  0
 39 40  1  0  0  0  0
 39 82  1  0  0  0  0
 40 41  2  0  0  0  0
 40 83  1  0  0  0  0
 41 42  1  0  0  0  0
 41 84  1  0  0  0  0
 42 43  2  0  0  0  0
 42 55  1  0  0  0  0
 43 44  1  0  0  0  0
 44 45  2  0  0  0  0
 44 46  1  0  0  0  0
 46 47  1  0  0  0  0
 46 55  1  0  0  0  0
 47 48  1  0  0  0  0
 47 53  1  0  0  0  0
 47 85  1  0  0  0  0
 48 49  1  0  0  0  0
 48 86  1  0  0  0  0
 48 87  1  0  0  0  0
 49 50  1  0  0  0  0
 49 88  1  0  0  0  0
 49 89  1  0  0  0  0
 50 51  2  0  0  0  0
 50 52  1  0  0  0  0
 52 53  1  0  0  0  0
 52 90  1  0  0  0  0
 53 54  2  0  0  0  0
 55 56  2  0  0  0  0
M  END
$$$$
protac3895RUN2
  chem.cr 07102519423D
protac3895RUN2
 90 96  0  0  0  0  0  0  0  0999 V2000
    2.0369    4.7356    0.8377 O   0  0  0  0  0  0  0  0  0  0  0  0
    1.3086    3.8763    1.3091 C   0  0  0  0  0  0  0  0  0  0  0  0
   -0.1150    4.1530    1.7509 C   0  0  0  0  0  0  0  0  0  0  0  0
   -0.3562    4.0886    3.2114 N   0  0  0  0  0  0  0  0  0  0  0  0
    0.6943    3.8706    4.1174 C   0  0  0  0  0  0  0  0  0  0  0  0
    0.2617    3.2085    5.2144 C   0  0  0  0  0  0  0  0  0  0  0  0
    0.9924    2.9666    6.3463 C   0  0  0  0  0  0  0  0  0  0  0  0
    0.6237    2.6073    7.6061 C   0  0  0  0  0  0  0  0  0  0  0  0
   -0.6535    2.5157    8.1291 C   0  0  0  0  0  0  0  0  0  0  0  0
   -1.0622    1.3156    8.7526 C   0  0  0  0  0  0  0  0  0  0  0  0
   -2.3536    1.1938    9.2942 C   0  0  0  0  0  0  0  0  0  0  0  0
   -3.2400    2.2808    9.2391 C   0  0  0  0  0  0  0  0  0  0  0  0
   -4.8569    2.1366    9.9171 Cl  0  0  0  0  0  0  0  0  0  0  0  0
   -2.8291    3.4942    8.6665 C   0  0  0  0  0  0  0  0  0  0  0  0
   -1.5397    3.6209    8.1259 C   0  0  0  0  0  0  0  0  0  0  0  0
   -1.0598    5.1970    7.4896 Cl  0  0  0  0  0  0  0  0  0  0  0  0
    1.6862    2.5034    8.4081 C   0  0  0  0  0  0  0  0  0  0  0  0
    1.8154    2.2753    9.6038 O   0  0  0  0  0  0  0  0  0  0  0  0
    2.8245    2.7687    7.6707 N   0  0  0  0  0  0  0  0  0  0  0  0
    2.3374    3.1130    6.4134 C   0  0  0  0  0  0  0  0  0  0  0  0
    3.1850    3.4394    5.5892 O   0  0  0  0  0  0  0  0  0  0  0  0
   -1.0818    2.8966    4.9467 C   0  0  0  0  0  0  0  0  0  0  0  0
   -1.9501    1.9326    5.4976 C   0  0  0  0  0  0  0  0  0  0  0  0
   -3.2432    1.7646    4.9585 C   0  0  0  0  0  0  0  0  0  0  0  0
   -3.6505    2.4908    3.8190 C   0  0  0  0  0  0  0  0  0  0  0  0
   -2.7367    3.3435    3.1753 C   0  0  0  0  0  0  0  0  0  0  0  0
   -1.4673    3.4982    3.7467 C   0  0  0  0  0  0  0  0  0  0  0  0
    1.7834    2.5570    1.2511 N   0  0  0  0  0  0  0  0  0  0  0  0
    1.2041    1.4024    1.9667 C   0  0  0  0  0  0  0  0  0  0  0  0
    0.9332    0.1883    1.0527 C   0  0  0  0  0  0  0  0  0  0  0  0
   -0.1448    0.5286    0.1625 O   0  0  0  0  0  0  0  0  0  0  0  0
    0.2211    0.9528   -1.1632 C   0  0  0  0  0  0  0  0  0  0  0  0
    0.4746   -0.2906   -2.0418 C   0  0  0  0  0  0  0  0  0  0  0  0
   -0.8036   -0.8272   -2.4101 O   0  0  0  0  0  0  0  0  0  0  0  0
   -0.7454   -1.9343   -3.3133 C   0  0  0  0  0  0  0  0  0  0  0  0
   -2.1943   -2.3489   -3.6328 C   0  0  0  0  0  0  0  0  0  0  0  0
   -2.1854   -3.4485   -4.6080 N   0  0  0  0  0  0  0  0  0  0  0  0
   -2.1401   -3.1496   -5.9609 C   0  0  0  0  0  0  0  0  0  0  0  0
   -3.2541   -2.6228   -6.6501 C   0  0  0  0  0  0  0  0  0  0  0  0
   -3.1613   -2.2761   -8.0215 C   0  0  0  0  0  0  0  0  0  0  0  0
   -1.9423   -2.4250   -8.7176 C   0  0  0  0  0  0  0  0  0  0  0  0
   -0.8457   -2.9391   -8.0132 C   0  0  0  0  0  0  0  0  0  0  0  0
   -0.9489   -3.3051   -6.6747 C   0  0  0  0  0  0  0  0  0  0  0  0
    0.2905   -3.7101   -6.2397 C   0  0  0  0  0  0  0  0  0  0  0  0
    0.5139   -4.4790   -5.3117 O   0  0  0  0  0  0  0  0  0  0  0  0
    1.1941   -3.5753   -7.3049 N   0  0  0  0  0  0  0  0  0  0  0  0
    2.6447   -3.3282   -7.1515 C   0  0  0  0  0  0  0  0  0  0  0  0
    3.4503   -4.5677   -7.5922 C   0  0  0  0  0  0  0  0  0  0  0  0
    3.3822   -5.6586   -6.5018 C   0  0  0  0  0  0  0  0  0  0  0  0
    3.8122   -5.1274   -5.1520 C   0  0  0  0  0  0  0  0  0  0  0  0
    4.3629   -5.8127   -4.3053 O   0  0  0  0  0  0  0  0  0  0  0  0
    3.6164   -3.7735   -4.8520 N   0  0  0  0  0  0  0  0  0  0  0  0
    3.0263   -2.8688   -5.7471 C   0  0  0  0  0  0  0  0  0  0  0  0
    2.8699   -1.7256   -5.3427 O   0  0  0  0  0  0  0  0  0  0  0  0
    0.4561   -3.1265   -8.4083 C   0  0  0  0  0  0  0  0  0  0  0  0
    0.9887   -2.7672   -9.4525 O   0  0  0  0  0  0  0  0  0  0  0  0
   -0.3923    5.1568    1.4120 H   0  0  0  0  0  0  0  0  0  0  0  0
   -0.7788    3.4416    1.2458 H   0  0  0  0  0  0  0  0  0  0  0  0
    1.6640    4.3202    3.9101 H   0  0  0  0  0  0  0  0  0  0  0  0
   -0.3766    0.4733    8.8000 H   0  0  0  0  0  0  0  0  0  0  0  0
   -2.6650    0.2615    9.7582 H   0  0  0  0  0  0  0  0  0  0  0  0
   -3.5055    4.3435    8.6505 H   0  0  0  0  0  0  0  0  0  0  0  0
    3.6743    3.1408    8.0636 H   0  0  0  0  0  0  0  0  0  0  0  0
   -1.6345    1.2749    6.2905 H   0  0  0  0  0  0  0  0  0  0  0  0
   -3.9200    1.0427    5.4091 H   0  0  0  0  0  0  0  0  0  0  0  0
   -4.6445    2.3426    3.4048 H   0  0  0  0  0  0  0  0  0  0  0  0
   -2.9979    3.8398    2.2449 H   0  0  0  0  0  0  0  0  0  0  0  0
    2.6684    2.4329    0.7727 H   0  0  0  0  0  0  0  0  0  0  0  0
    0.2580    1.6698    2.4549 H   0  0  0  0  0  0  0  0  0  0  0  0
    1.9014    1.1070    2.7624 H   0  0  0  0  0  0  0  0  0  0  0  0
    0.6339   -0.6610    1.6803 H   0  0  0  0  0  0  0  0  0  0  0  0
    1.8428   -0.1005    0.5094 H   0  0  0  0  0  0  0  0  0  0  0  0
    1.1192    1.5829   -1.1454 H   0  0  0  0  0  0  0  0  0  0  0  0
   -0.5905    1.5399   -1.6103 H   0  0  0  0  0  0  0  0  0  0  0  0
    1.0716   -1.0345   -1.4997 H   0  0  0  0  0  0  0  0  0  0  0  0
    1.0320    0.0105   -2.9384 H   0  0  0  0  0  0  0  0  0  0  0  0
   -0.2270   -1.6490   -4.2394 H   0  0  0  0  0  0  0  0  0  0  0  0
   -0.2055   -2.7772   -2.8629 H   0  0  0  0  0  0  0  0  0  0  0  0
   -2.6931   -2.6657   -2.7082 H   0  0  0  0  0  0  0  0  0  0  0  0
   -2.7373   -1.4837   -4.0355 H   0  0  0  0  0  0  0  0  0  0  0  0
   -1.5643   -4.2117   -4.3599 H   0  0  0  0  0  0  0  0  0  0  0  0
   -4.1925   -2.4859   -6.1219 H   0  0  0  0  0  0  0  0  0  0  0  0
   -4.0292   -1.8749   -8.5389 H   0  0  0  0  0  0  0  0  0  0  0  0
   -1.8447   -2.1355   -9.7617 H   0  0  0  0  0  0  0  0  0  0  0  0
    2.9099   -2.5016   -7.8248 H   0  0  0  0  0  0  0  0  0  0  0  0
    4.4979   -4.2781   -7.7528 H   0  0  0  0  0  0  0  0  0  0  0  0
    3.0676   -4.9466   -8.5496 H   0  0  0  0  0  0  0  0  0  0  0  0
    2.3581   -6.0432   -6.4176 H   0  0  0  0  0  0  0  0  0  0  0  0
    4.0149   -6.5125   -6.7765 H   0  0  0  0  0  0  0  0  0  0  0  0
    3.8561   -3.4484   -3.9275 H   0  0  0  0  0  0  0  0  0  0  0  0
  1  2  2  0  0  0  0
  2  3  1  0  0  0  0
  2 28  1  0  0  0  0
  3  4  1  0  0  0  0
  3 57  1  0  0  0  0
  3 58  1  0  0  0  0
  4  5  1  0  0  0  0
  4 27  1  0  0  0  0
  5  6  2  0  0  0  0
  5 59  1  0  0  0  0
  6  7  1  0  0  0  0
  6 22  1  0  0  0  0
  7  8  2  0  0  0  0
  7 20  1  0  0  0  0
  8  9  1  0  0  0  0
  8 17  1  0  0  0  0
  9 10  2  0  0  0  0
  9 15  1  0  0  0  0
 10 11  1  0  0  0  0
 10 60  1  0  0  0  0
 11 12  2  0  0  0  0
 11 61  1  0  0  0  0
 12 13  1  0  0  0  0
 12 14  1  0  0  0  0
 14 15  2  0  0  0  0
 14 62  1  0  0  0  0
 15 16  1  0  0  0  0
 17 18  2  0  0  0  0
 17 19  1  0  0  0  0
 19 20  1  0  0  0  0
 19 63  1  0  0  0  0
 20 21  2  0  0  0  0
 22 23  2  0  0  0  0
 22 27  1  0  0  0  0
 23 24  1  0  0  0  0
 23 64  1  0  0  0  0
 24 25  2  0  0  0  0
 24 65  1  0  0  0  0
 25 26  1  0  0  0  0
 25 66  1  0  0  0  0
 26 27  2  0  0  0  0
 26 67  1  0  0  0  0
 28 29  1  0  0  0  0
 28 68  1  0  0  0  0
 29 30  1  0  0  0  0
 29 69  1  0  0  0  0
 29 70  1  0  0  0  0
 30 31  1  0  0  0  0
 30 71  1  0  0  0  0
 30 72  1  0  0  0  0
 31 32  1  0  0  0  0
 32 33  1  0  0  0  0
 32 73  1  0  0  0  0
 32 74  1  0  0  0  0
 33 34  1  0  0  0  0
 33 75  1  0  0  0  0
 33 76  1  0  0  0  0
 34 35  1  0  0  0  0
 35 36  1  0  0  0  0
 35 77  1  0  0  0  0
 35 78  1  0  0  0  0
 36 37  1  0  0  0  0
 36 79  1  0  0  0  0
 36 80  1  0  0  0  0
 37 38  1  0  0  0  0
 37 81  1  0  0  0  0
 38 39  2  0  0  0  0
 38 43  1  0  0  0  0
 39 40  1  0  0  0  0
 39 82  1  0  0  0  0
 40 41  2  0  0  0  0
 40 83  1  0  0  0  0
 41 42  1  0  0  0  0
 41 84  1  0  0  0  0
 42 43  2  0  0  0  0
 42 55  1  0  0  0  0
 43 44  1  0  0  0  0
 44 45  2  0  0  0  0
 44 46  1  0  0  0  0
 46 47  1  0  0  0  0
 46 55  1  0  0  0  0
 47 48  1  0  0  0  0
 47 53  1  0  0  0  0
 47 85  1  0  0  0  0
 48 49  1  0  0  0  0
 48 86  1  0  0  0  0
 48 87  1  0  0  0  0
 49 50  1  0  0  0  0
 49 88  1  0  0  0  0
 49 89  1  0  0  0  0
 50 51  2  0  0  0  0
 50 52  1  0  0  0  0
 52 53  1  0  0  0  0
 52 90  1  0  0  0  0
 53 54  2  0  0  0  0
 55 56  2  0  0  0  0
M  END
$$$$
protac3895RUN2
  chem.cr 07102519423D
protac3895RUN2
 90 96  0  0  0  0  0  0  0  0999 V2000
    1.1855    3.1893    1.3254 O   0  0  0  0  0  0  0  0  0  0  0  0
    0.6846    2.3814    2.0921 C   0  0  0  0  0  0  0  0  0  0  0  0
    1.0919    2.2877    3.5477 C   0  0  0  0  0  0  0  0  0  0  0  0
   -0.0029    1.9997    4.4985 N   0  0  0  0  0  0  0  0  0  0  0  0
    0.1959    1.2177    5.6475 C   0  0  0  0  0  0  0  0  0  0  0  0
   -0.6638    1.5806    6.6248 C   0  0  0  0  0  0  0  0  0  0  0  0
   -0.6176    1.1762    7.9347 C   0  0  0  0  0  0  0  0  0  0  0  0
   -1.1784    1.6928    9.0604 C   0  0  0  0  0  0  0  0  0  0  0  0
   -1.8711    2.8838    9.2053 C   0  0  0  0  0  0  0  0  0  0  0  0
   -3.1532    2.8654    9.7948 C   0  0  0  0  0  0  0  0  0  0  0  0
   -3.8848    4.0545    9.9550 C   0  0  0  0  0  0  0  0  0  0  0  0
   -3.3306    5.2766    9.5468 C   0  0  0  0  0  0  0  0  0  0  0  0
   -4.2490    6.7642    9.7325 Cl  0  0  0  0  0  0  0  0  0  0  0  0
   -2.0339    5.3176    9.0139 C   0  0  0  0  0  0  0  0  0  0  0  0
   -1.2963    4.1318    8.8555 C   0  0  0  0  0  0  0  0  0  0  0  0
    0.3599    4.2584    8.2556 Cl  0  0  0  0  0  0  0  0  0  0  0  0
   -0.8367    0.9806   10.1400 C   0  0  0  0  0  0  0  0  0  0  0  0
   -1.0452    1.1184   11.3374 O   0  0  0  0  0  0  0  0  0  0  0  0
   -0.0395   -0.0734    9.7371 N   0  0  0  0  0  0  0  0  0  0  0  0
    0.1241    0.1274    8.3691 C   0  0  0  0  0  0  0  0  0  0  0  0
    0.8620   -0.6689    7.8004 O   0  0  0  0  0  0  0  0  0  0  0  0
   -1.5287    2.5116    6.0262 C   0  0  0  0  0  0  0  0  0  0  0  0
   -2.8218    2.9450    6.3827 C   0  0  0  0  0  0  0  0  0  0  0  0
   -3.5133    3.8405    5.5388 C   0  0  0  0  0  0  0  0  0  0  0  0
   -2.9592    4.2414    4.3054 C   0  0  0  0  0  0  0  0  0  0  0  0
   -1.7335    3.6998    3.8787 C   0  0  0  0  0  0  0  0  0  0  0  0
   -1.0668    2.8234    4.7458 C   0  0  0  0  0  0  0  0  0  0  0  0
    0.1811    1.2299    1.4825 N   0  0  0  0  0  0  0  0  0  0  0  0
   -1.1074    0.6365    1.8672 C   0  0  0  0  0  0  0  0  0  0  0  0
   -1.6215   -0.3623    0.8059 C   0  0  0  0  0  0  0  0  0  0  0  0
   -2.3012    0.3320   -0.2630 O   0  0  0  0  0  0  0  0  0  0  0  0
   -1.5508    1.2058   -1.1399 C   0  0  0  0  0  0  0  0  0  0  0  0
   -0.4312    0.4289   -1.8736 C   0  0  0  0  0  0  0  0  0  0  0  0
   -1.0505   -0.5708   -2.6903 O   0  0  0  0  0  0  0  0  0  0  0  0
   -0.1540   -1.3181   -3.5173 C   0  0  0  0  0  0  0  0  0  0  0  0
   -1.0253   -2.2513   -4.3731 C   0  0  0  0  0  0  0  0  0  0  0  0
   -0.2071   -2.9211   -5.3957 N   0  0  0  0  0  0  0  0  0  0  0  0
   -0.4582   -2.8851   -6.7630 C   0  0  0  0  0  0  0  0  0  0  0  0
   -1.7501   -2.6949   -7.3107 C   0  0  0  0  0  0  0  0  0  0  0  0
   -1.9470   -2.6368   -8.7128 C   0  0  0  0  0  0  0  0  0  0  0  0
   -0.8560   -2.7758   -9.5973 C   0  0  0  0  0  0  0  0  0  0  0  0
    0.4142   -2.9800   -9.0426 C   0  0  0  0  0  0  0  0  0  0  0  0
    0.6046   -3.0351   -7.6632 C   0  0  0  0  0  0  0  0  0  0  0  0
    1.9457   -3.2213   -7.4184 C   0  0  0  0  0  0  0  0  0  0  0  0
    2.4422   -3.6768   -6.3950 O   0  0  0  0  0  0  0  0  0  0  0  0
    2.6098   -3.2978   -8.6528 N   0  0  0  0  0  0  0  0  0  0  0  0
    4.0620   -3.1122   -8.8763 C   0  0  0  0  0  0  0  0  0  0  0  0
    4.7397   -4.4539   -9.2286 C   0  0  0  0  0  0  0  0  0  0  0  0
    4.9179   -5.3095   -7.9534 C   0  0  0  0  0  0  0  0  0  0  0  0
    5.6353   -4.5505   -6.8578 C   0  0  0  0  0  0  0  0  0  0  0  0
    6.3824   -5.0806   -6.0497 O   0  0  0  0  0  0  0  0  0  0  0  0
    5.5313   -3.1550   -6.8081 N   0  0  0  0  0  0  0  0  0  0  0  0
    4.7650   -2.4097   -7.7181 C   0  0  0  0  0  0  0  0  0  0  0  0
    4.7919   -1.1935   -7.5867 O   0  0  0  0  0  0  0  0  0  0  0  0
    1.6379   -3.1421   -9.6490 C   0  0  0  0  0  0  0  0  0  0  0  0
    1.9150   -3.0853  -10.8422 O   0  0  0  0  0  0  0  0  0  0  0  0
    1.8665    1.5184    3.6388 H   0  0  0  0  0  0  0  0  0  0  0  0
    1.5458    3.2443    3.8347 H   0  0  0  0  0  0  0  0  0  0  0  0
    1.0537    0.5504    5.6910 H   0  0  0  0  0  0  0  0  0  0  0  0
   -3.5833    1.9217   10.1205 H   0  0  0  0  0  0  0  0  0  0  0  0
   -4.8754    4.0308   10.4011 H   0  0  0  0  0  0  0  0  0  0  0  0
   -1.5933    6.2699    8.7329 H   0  0  0  0  0  0  0  0  0  0  0  0
    0.6519   -0.5107   10.3259 H   0  0  0  0  0  0  0  0  0  0  0  0
   -3.3218    2.5676    7.2626 H   0  0  0  0  0  0  0  0  0  0  0  0
   -4.4963    4.2001    5.8281 H   0  0  0  0  0  0  0  0  0  0  0  0
   -3.5080    4.9182    3.6560 H   0  0  0  0  0  0  0  0  0  0  0  0
   -1.3432    3.9332    2.8926 H   0  0  0  0  0  0  0  0  0  0  0  0
    0.4518    1.1126    0.5142 H   0  0  0  0  0  0  0  0  0  0  0  0
   -1.8553    1.4282    2.0179 H   0  0  0  0  0  0  0  0  0  0  0  0
   -0.9863    0.1091    2.8225 H   0  0  0  0  0  0  0  0  0  0  0  0
   -2.3375   -1.0378    1.2915 H   0  0  0  0  0  0  0  0  0  0  0  0
   -0.8034   -0.9907    0.4316 H   0  0  0  0  0  0  0  0  0  0  0  0
   -1.1249    2.0523   -0.5887 H   0  0  0  0  0  0  0  0  0  0  0  0
   -2.2251    1.6296   -1.8949 H   0  0  0  0  0  0  0  0  0  0  0  0
    0.2689   -0.0210   -1.1601 H   0  0  0  0  0  0  0  0  0  0  0  0
    0.1336    1.1321   -2.5000 H   0  0  0  0  0  0  0  0  0  0  0  0
    0.4154   -0.6443   -4.1711 H   0  0  0  0  0  0  0  0  0  0  0  0
    0.5527   -1.9008   -2.9115 H   0  0  0  0  0  0  0  0  0  0  0  0
   -1.5045   -2.9976   -3.7252 H   0  0  0  0  0  0  0  0  0  0  0  0
   -1.8142   -1.6451   -4.8368 H   0  0  0  0  0  0  0  0  0  0  0  0
    0.7391   -3.1900   -5.1418 H   0  0  0  0  0  0  0  0  0  0  0  0
   -2.6113   -2.6000   -6.6582 H   0  0  0  0  0  0  0  0  0  0  0  0
   -2.9471   -2.4822   -9.1105 H   0  0  0  0  0  0  0  0  0  0  0  0
   -0.9919   -2.7266  -10.6755 H   0  0  0  0  0  0  0  0  0  0  0  0
    4.1695   -2.4492   -9.7454 H   0  0  0  0  0  0  0  0  0  0  0  0
    5.7238   -4.2530   -9.6726 H   0  0  0  0  0  0  0  0  0  0  0  0
    4.1477   -4.9886   -9.9845 H   0  0  0  0  0  0  0  0  0  0  0  0
    3.9378   -5.6286   -7.5747 H   0  0  0  0  0  0  0  0  0  0  0  0
    5.4755   -6.2257   -8.1862 H   0  0  0  0  0  0  0  0  0  0  0  0
    5.9908   -2.6670   -6.0545 H   0  0  0  0  0  0  0  0  0  0  0  0
  1  2  2  0  0  0  0
  2  3  1  0  0  0  0
  2 28  1  0  0  0  0
  3  4  1  0  0  0  0
  3 57  1  0  0  0  0
  3 58  1  0  0  0  0
  4  5  1  0  0  0  0
  4 27  1  0  0  0  0
  5  6  2  0  0  0  0
  5 59  1  0  0  0  0
  6  7  1  0  0  0  0
  6 22  1  0  0  0  0
  7  8  2  0  0  0  0
  7 20  1  0  0  0  0
  8  9  1  0  0  0  0
  8 17  1  0  0  0  0
  9 10  2  0  0  0  0
  9 15  1  0  0  0  0
 10 11  1  0  0  0  0
 10 60  1  0  0  0  0
 11 12  2  0  0  0  0
 11 61  1  0  0  0  0
 12 13  1  0  0  0  0
 12 14  1  0  0  0  0
 14 15  2  0  0  0  0
 14 62  1  0  0  0  0
 15 16  1  0  0  0  0
 17 18  2  0  0  0  0
 17 19  1  0  0  0  0
 19 20  1  0  0  0  0
 19 63  1  0  0  0  0
 20 21  2  0  0  0  0
 22 23  2  0  0  0  0
 22 27  1  0  0  0  0
 23 24  1  0  0  0  0
 23 64  1  0  0  0  0
 24 25  2  0  0  0  0
 24 65  1  0  0  0  0
 25 26  1  0  0  0  0
 25 66  1  0  0  0  0
 26 27  2  0  0  0  0
 26 67  1  0  0  0  0
 28 29  1  0  0  0  0
 28 68  1  0  0  0  0
 29 30  1  0  0  0  0
 29 69  1  0  0  0  0
 29 70  1  0  0  0  0
 30 31  1  0  0  0  0
 30 71  1  0  0  0  0
 30 72  1  0  0  0  0
 31 32  1  0  0  0  0
 32 33  1  0  0  0  0
 32 73  1  0  0  0  0
 32 74  1  0  0  0  0
 33 34  1  0  0  0  0
 33 75  1  0  0  0  0
 33 76  1  0  0  0  0
 34 35  1  0  0  0  0
 35 36  1  0  0  0  0
 35 77  1  0  0  0  0
 35 78  1  0  0  0  0
 36 37  1  0  0  0  0
 36 79  1  0  0  0  0
 36 80  1  0  0  0  0
 37 38  1  0  0  0  0
 37 81  1  0  0  0  0
 38 39  2  0  0  0  0
 38 43  1  0  0  0  0
 39 40  1  0  0  0  0
 39 82  1  0  0  0  0
 40 41  2  0  0  0  0
 40 83  1  0  0  0  0
 41 42  1  0  0  0  0
 41 84  1  0  0  0  0
 42 43  2  0  0  0  0
 42 55  1  0  0  0  0
 43 44  1  0  0  0  0
 44 45  2  0  0  0  0
 44 46  1  0  0  0  0
 46 47  1  0  0  0  0
 46 55  1  0  0  0  0
 47 48  1  0  0  0  0
 47 53  1  0  0  0  0
 47 85  1  0  0  0  0
 48 49  1  0  0  0  0
 48 86  1  0  0  0  0
 48 87  1  0  0  0  0
 49 50  1  0  0  0  0
 49 88  1  0  0  0  0
 49 89  1  0  0  0  0
 50 51  2  0  0  0  0
 50 52  1  0  0  0  0
 52 53  1  0  0  0  0
 52 90  1  0  0  0  0
 53 54  2  0  0  0  0
 55 56  2  0  0  0  0
M  END
$$$$
protac3895RUN2
  chem.cr 07102519423D
protac3895RUN2
 90 96  0  0  0  0  0  0  0  0999 V2000
    2.7071   -2.7473    1.9590 O   0  0  0  0  0  0  0  0  0  0  0  0
    2.8840   -1.7348    2.6223 C   0  0  0  0  0  0  0  0  0  0  0  0
    3.6039   -1.7408    3.9552 C   0  0  0  0  0  0  0  0  0  0  0  0
    3.4817   -0.5000    4.7487 N   0  0  0  0  0  0  0  0  0  0  0  0
    2.2369   -0.0637    5.2268 C   0  0  0  0  0  0  0  0  0  0  0  0
    2.2584    1.2662    5.4617 C   0  0  0  0  0  0  0  0  0  0  0  0
    1.2727    2.0009    6.0554 C   0  0  0  0  0  0  0  0  0  0  0  0
    1.3016    3.2145    6.6620 C   0  0  0  0  0  0  0  0  0  0  0  0
    2.4148    3.9649    7.0098 C   0  0  0  0  0  0  0  0  0  0  0  0
    2.4896    5.3250    6.6327 C   0  0  0  0  0  0  0  0  0  0  0  0
    3.5910    6.1138    7.0097 C   0  0  0  0  0  0  0  0  0  0  0  0
    4.6150    5.5594    7.7915 C   0  0  0  0  0  0  0  0  0  0  0  0
    5.9856    6.5471    8.2817 Cl  0  0  0  0  0  0  0  0  0  0  0  0
    4.5322    4.2232    8.2093 C   0  0  0  0  0  0  0  0  0  0  0  0
    3.4361    3.4294    7.8346 C   0  0  0  0  0  0  0  0  0  0  0  0
    3.3523    1.7896    8.4802 Cl  0  0  0  0  0  0  0  0  0  0  0  0
    0.0929    3.5409    7.1285 C   0  0  0  0  0  0  0  0  0  0  0  0
   -0.3219    4.4719    7.8052 O   0  0  0  0  0  0  0  0  0  0  0  0
   -0.7970    2.5287    6.8150 N   0  0  0  0  0  0  0  0  0  0  0  0
    0.0002    1.5641    6.2044 C   0  0  0  0  0  0  0  0  0  0  0  0
   -0.5698    0.5296    5.8753 O   0  0  0  0  0  0  0  0  0  0  0  0
    3.5040    1.7084    4.9894 C   0  0  0  0  0  0  0  0  0  0  0  0
    3.9430    2.9936    4.6148 C   0  0  0  0  0  0  0  0  0  0  0  0
    5.2029    3.1486    3.9983 C   0  0  0  0  0  0  0  0  0  0  0  0
    5.9930    2.0243    3.6816 C   0  0  0  0  0  0  0  0  0  0  0  0
    5.5073    0.7303    3.9408 C   0  0  0  0  0  0  0  0  0  0  0  0
    4.2644    0.6114    4.5789 C   0  0  0  0  0  0  0  0  0  0  0  0
    2.2985   -0.5329    2.1964 N   0  0  0  0  0  0  0  0  0  0  0  0
    1.2153   -0.4833    1.2059 C   0  0  0  0  0  0  0  0  0  0  0  0
    0.2917    0.7221    1.4322 C   0  0  0  0  0  0  0  0  0  0  0  0
   -0.7638    0.6124    0.4731 O   0  0  0  0  0  0  0  0  0  0  0  0
   -1.7536    1.6480    0.5410 C   0  0  0  0  0  0  0  0  0  0  0  0
   -2.7921    1.3773   -0.5627 C   0  0  0  0  0  0  0  0  0  0  0  0
   -2.2026    1.7529   -1.8202 O   0  0  0  0  0  0  0  0  0  0  0  0
   -2.2848    0.7904   -2.8814 C   0  0  0  0  0  0  0  0  0  0  0  0
   -1.2891   -0.3530   -2.5983 C   0  0  0  0  0  0  0  0  0  0  0  0
   -1.2125   -1.2284   -3.7769 N   0  0  0  0  0  0  0  0  0  0  0  0
   -1.7608   -2.5028   -3.8396 C   0  0  0  0  0  0  0  0  0  0  0  0
   -1.7913   -3.3904   -2.7376 C   0  0  0  0  0  0  0  0  0  0  0  0
   -2.3794   -4.6741   -2.8540 C   0  0  0  0  0  0  0  0  0  0  0  0
   -2.9517   -5.0954   -4.0727 C   0  0  0  0  0  0  0  0  0  0  0  0
   -2.9027   -4.2149   -5.1607 C   0  0  0  0  0  0  0  0  0  0  0  0
   -2.3154   -2.9536   -5.0449 C   0  0  0  0  0  0  0  0  0  0  0  0
   -2.4444   -2.3166   -6.2569 C   0  0  0  0  0  0  0  0  0  0  0  0
   -2.2561   -1.1337   -6.5200 O   0  0  0  0  0  0  0  0  0  0  0  0
   -3.1423   -3.1579   -7.1220 N   0  0  0  0  0  0  0  0  0  0  0  0
   -3.4028   -2.8763   -8.5463 C   0  0  0  0  0  0  0  0  0  0  0  0
   -4.8923   -2.5433   -8.7654 C   0  0  0  0  0  0  0  0  0  0  0  0
   -5.1400   -2.2497  -10.2608 C   0  0  0  0  0  0  0  0  0  0  0  0
   -4.6195   -3.3551  -11.1524 C   0  0  0  0  0  0  0  0  0  0  0  0
   -5.0152   -3.5316  -12.2940 O   0  0  0  0  0  0  0  0  0  0  0  0
   -3.4829   -4.0704  -10.7601 N   0  0  0  0  0  0  0  0  0  0  0  0
   -2.9367   -3.9964   -9.4707 C   0  0  0  0  0  0  0  0  0  0  0  0
   -1.9231   -4.6574   -9.2872 O   0  0  0  0  0  0  0  0  0  0  0  0
   -3.3925   -4.3583   -6.4414 C   0  0  0  0  0  0  0  0  0  0  0  0
   -4.2416   -5.1536   -6.8274 O   0  0  0  0  0  0  0  0  0  0  0  0
    3.2154   -2.5739    4.5516 H   0  0  0  0  0  0  0  0  0  0  0  0
    4.6647   -1.9463    3.7764 H   0  0  0  0  0  0  0  0  0  0  0  0
    1.4637   -0.7985    5.4400 H   0  0  0  0  0  0  0  0  0  0  0  0
    1.6917    5.7663    6.0415 H   0  0  0  0  0  0  0  0  0  0  0  0
    3.6459    7.1556    6.7062 H   0  0  0  0  0  0  0  0  0  0  0  0
    5.3117    3.8055    8.8396 H   0  0  0  0  0  0  0  0  0  0  0  0
   -1.5698    2.2859    7.4154 H   0  0  0  0  0  0  0  0  0  0  0  0
    3.3091    3.8590    4.7238 H   0  0  0  0  0  0  0  0  0  0  0  0
    5.5504    4.1443    3.7316 H   0  0  0  0  0  0  0  0  0  0  0  0
    6.9511    2.1560    3.1841 H   0  0  0  0  0  0  0  0  0  0  0  0
    6.0689   -0.1423    3.6265 H   0  0  0  0  0  0  0  0  0  0  0  0
    2.5221    0.3031    2.7280 H   0  0  0  0  0  0  0  0  0  0  0  0
    0.6209   -1.4048    1.2732 H   0  0  0  0  0  0  0  0  0  0  0  0
    1.6497   -0.4365    0.1985 H   0  0  0  0  0  0  0  0  0  0  0  0
    0.8535    1.6554    1.2945 H   0  0  0  0  0  0  0  0  0  0  0  0
   -0.1089    0.6976    2.4549 H   0  0  0  0  0  0  0  0  0  0  0  0
   -1.3022    2.6377    0.3884 H   0  0  0  0  0  0  0  0  0  0  0  0
   -2.2535    1.6381    1.5183 H   0  0  0  0  0  0  0  0  0  0  0  0
   -3.6872    1.9846   -0.3790 H   0  0  0  0  0  0  0  0  0  0  0  0
   -3.0912    0.3211   -0.5381 H   0  0  0  0  0  0  0  0  0  0  0  0
   -3.3055    0.3958   -2.9807 H   0  0  0  0  0  0  0  0  0  0  0  0
   -2.0168    1.2690   -3.8317 H   0  0  0  0  0  0  0  0  0  0  0  0
   -0.2996    0.0742   -2.3850 H   0  0  0  0  0  0  0  0  0  0  0  0
   -1.6116   -0.9044   -1.7078 H   0  0  0  0  0  0  0  0  0  0  0  0
   -1.1522   -0.7627   -4.6776 H   0  0  0  0  0  0  0  0  0  0  0  0
   -1.3488   -3.0996   -1.7904 H   0  0  0  0  0  0  0  0  0  0  0  0
   -2.3923   -5.3415   -1.9954 H   0  0  0  0  0  0  0  0  0  0  0  0
   -3.4149   -6.0741   -4.1702 H   0  0  0  0  0  0  0  0  0  0  0  0
   -2.8133   -1.9907   -8.8198 H   0  0  0  0  0  0  0  0  0  0  0  0
   -5.1845   -1.6858   -8.1430 H   0  0  0  0  0  0  0  0  0  0  0  0
   -5.5065   -3.3980   -8.4492 H   0  0  0  0  0  0  0  0  0  0  0  0
   -6.2134   -2.1189  -10.4453 H   0  0  0  0  0  0  0  0  0  0  0  0
   -4.6544   -1.3066  -10.5431 H   0  0  0  0  0  0  0  0  0  0  0  0
   -3.0882   -4.7367  -11.4071 H   0  0  0  0  0  0  0  0  0  0  0  0
  1  2  2  0  0  0  0
  2  3  1  0  0  0  0
  2 28  1  0  0  0  0
  3  4  1  0  0  0  0
  3 57  1  0  0  0  0
  3 58  1  0  0  0  0
  4  5  1  0  0  0  0
  4 27  1  0  0  0  0
  5  6  2  0  0  0  0
  5 59  1  0  0  0  0
  6  7  1  0  0  0  0
  6 22  1  0  0  0  0
  7  8  2  0  0  0  0
  7 20  1  0  0  0  0
  8  9  1  0  0  0  0
  8 17  1  0  0  0  0
  9 10  2  0  0  0  0
  9 15  1  0  0  0  0
 10 11  1  0  0  0  0
 10 60  1  0  0  0  0
 11 12  2  0  0  0  0
 11 61  1  0  0  0  0
 12 13  1  0  0  0  0
 12 14  1  0  0  0  0
 14 15  2  0  0  0  0
 14 62  1  0  0  0  0
 15 16  1  0  0  0  0
 17 18  2  0  0  0  0
 17 19  1  0  0  0  0
 19 20  1  0  0  0  0
 19 63  1  0  0  0  0
 20 21  2  0  0  0  0
 22 23  2  0  0  0  0
 22 27  1  0  0  0  0
 23 24  1  0  0  0  0
 23 64  1  0  0  0  0
 24 25  2  0  0  0  0
 24 65  1  0  0  0  0
 25 26  1  0  0  0  0
 25 66  1  0  0  0  0
 26 27  2  0  0  0  0
 26 67  1  0  0  0  0
 28 29  1  0  0  0  0
 28 68  1  0  0  0  0
 29 30  1  0  0  0  0
 29 69  1  0  0  0  0
 29 70  1  0  0  0  0
 30 31  1  0  0  0  0
 30 71  1  0  0  0  0
 30 72  1  0  0  0  0
 31 32  1  0  0  0  0
 32 33  1  0  0  0  0
 32 73  1  0  0  0  0
 32 74  1  0  0  0  0
 33 34  1  0  0  0  0
 33 75  1  0  0  0  0
 33 76  1  0  0  0  0
 34 35  1  0  0  0  0
 35 36  1  0  0  0  0
 35 77  1  0  0  0  0
 35 78  1  0  0  0  0
 36 37  1  0  0  0  0
 36 79  1  0  0  0  0
 36 80  1  0  0  0  0
 37 38  1  0  0  0  0
 37 81  1  0  0  0  0
 38 39  2  0  0  0  0
 38 43  1  0  0  0  0
 39 40  1  0  0  0  0
 39 82  1  0  0  0  0
 40 41  2  0  0  0  0
 40 83  1  0  0  0  0
 41 42  1  0  0  0  0
 41 84  1  0  0  0  0
 42 43  2  0  0  0  0
 42 55  1  0  0  0  0
 43 44  1  0  0  0  0
 44 45  2  0  0  0  0
 44 46  1  0  0  0  0
 46 47  1  0  0  0  0
 46 55  1  0  0  0  0
 47 48  1  0  0  0  0
 47 53  1  0  0  0  0
 47 85  1  0  0  0  0
 48 49  1  0  0  0  0
 48 86  1  0  0  0  0
 48 87  1  0  0  0  0
 49 50  1  0  0  0  0
 49 88  1  0  0  0  0
 49 89  1  0  0  0  0
 50 51  2  0  0  0  0
 50 52  1  0  0  0  0
 52 53  1  0  0  0  0
 52 90  1  0  0  0  0
 53 54  2  0  0  0  0
 55 56  2  0  0  0  0
M  END
$$$$
protac3895RUN2
  chem.cr 07102519423D
protac3895RUN2
 90 96  0  0  0  0  0  0  0  0999 V2000
    1.5659   -2.2374    2.7244 O   0  0  0  0  0  0  0  0  0  0  0  0
    2.1952   -1.2351    3.0333 C   0  0  0  0  0  0  0  0  0  0  0  0
    3.4374   -1.2642    3.8908 C   0  0  0  0  0  0  0  0  0  0  0  0
    3.5384   -0.1373    4.8404 N   0  0  0  0  0  0  0  0  0  0  0  0
    2.6185   -0.0049    5.8899 C   0  0  0  0  0  0  0  0  0  0  0  0
    2.5198    1.2837    6.2841 C   0  0  0  0  0  0  0  0  0  0  0  0
    1.8572    1.7435    7.3928 C   0  0  0  0  0  0  0  0  0  0  0  0
    1.9265    2.9218    8.0679 C   0  0  0  0  0  0  0  0  0  0  0  0
    2.8258    3.9610    7.8904 C   0  0  0  0  0  0  0  0  0  0  0  0
    2.3374    5.2713    7.6979 C   0  0  0  0  0  0  0  0  0  0  0  0
    3.2238    6.3484    7.5264 C   0  0  0  0  0  0  0  0  0  0  0  0
    4.6082    6.1312    7.5772 C   0  0  0  0  0  0  0  0  0  0  0  0
    5.7186    7.4830    7.3933 Cl  0  0  0  0  0  0  0  0  0  0  0  0
    5.1079    4.8409    7.8122 C   0  0  0  0  0  0  0  0  0  0  0  0
    4.2263    3.7600    7.9821 C   0  0  0  0  0  0  0  0  0  0  0  0
    4.9145    2.1810    8.3651 Cl  0  0  0  0  0  0  0  0  0  0  0  0
    1.1000    2.9238    9.1199 C   0  0  0  0  0  0  0  0  0  0  0  0
    0.8907    3.7250   10.0212 O   0  0  0  0  0  0  0  0  0  0  0  0
    0.4276    1.7171    9.1553 N   0  0  0  0  0  0  0  0  0  0  0  0
    0.9776    0.9924    8.1015 C   0  0  0  0  0  0  0  0  0  0  0  0
    0.5660   -0.1550    7.9768 O   0  0  0  0  0  0  0  0  0  0  0  0
    3.2756    2.0105    5.3496 C   0  0  0  0  0  0  0  0  0  0  0  0
    3.2453    3.3709    4.9860 C   0  0  0  0  0  0  0  0  0  0  0  0
    4.0346    3.8235    3.9079 C   0  0  0  0  0  0  0  0  0  0  0  0
    4.7922    2.9159    3.1385 C   0  0  0  0  0  0  0  0  0  0  0  0
    4.7222    1.5387    3.4108 C   0  0  0  0  0  0  0  0  0  0  0  0
    3.9436    1.1253    4.5001 C   0  0  0  0  0  0  0  0  0  0  0  0
    1.8369   -0.0007    2.4725 N   0  0  0  0  0  0  0  0  0  0  0  0
    0.7761    0.1340    1.4658 C   0  0  0  0  0  0  0  0  0  0  0  0
    0.6520    1.5689    0.9309 C   0  0  0  0  0  0  0  0  0  0  0  0
   -0.2817    1.5104   -0.1509 O   0  0  0  0  0  0  0  0  0  0  0  0
   -0.6050    2.7689   -0.7550 C   0  0  0  0  0  0  0  0  0  0  0  0
   -1.4945    2.4678   -1.9720 C   0  0  0  0  0  0  0  0  0  0  0  0
   -0.6309    2.0655   -3.0471 O   0  0  0  0  0  0  0  0  0  0  0  0
   -1.2260    1.2352   -4.0506 C   0  0  0  0  0  0  0  0  0  0  0  0
   -1.1412   -0.2227   -3.5612 C   0  0  0  0  0  0  0  0  0  0  0  0
   -1.7549   -1.1258   -4.5456 N   0  0  0  0  0  0  0  0  0  0  0  0
   -3.0425   -1.6489   -4.4926 C   0  0  0  0  0  0  0  0  0  0  0  0
   -4.0011   -1.2779   -3.5172 C   0  0  0  0  0  0  0  0  0  0  0  0
   -5.2877   -1.8731   -3.4948 C   0  0  0  0  0  0  0  0  0  0  0  0
   -5.6456   -2.8485   -4.4482 C   0  0  0  0  0  0  0  0  0  0  0  0
   -4.6967   -3.1938   -5.4164 C   0  0  0  0  0  0  0  0  0  0  0  0
   -3.4334   -2.6015   -5.4414 C   0  0  0  0  0  0  0  0  0  0  0  0
   -2.7437   -3.1204   -6.5133 C   0  0  0  0  0  0  0  0  0  0  0  0
   -1.6915   -2.7202   -7.0009 O   0  0  0  0  0  0  0  0  0  0  0  0
   -3.5849   -4.0060   -7.1922 N   0  0  0  0  0  0  0  0  0  0  0  0
   -3.1821   -4.8281   -8.3512 C   0  0  0  0  0  0  0  0  0  0  0  0
   -4.1707   -4.6885   -9.5289 C   0  0  0  0  0  0  0  0  0  0  0  0
   -3.6593   -5.5142  -10.7272 C   0  0  0  0  0  0  0  0  0  0  0  0
   -3.3144   -6.9395  -10.3448 C   0  0  0  0  0  0  0  0  0  0  0  0
   -3.2434   -7.8497  -11.1560 O   0  0  0  0  0  0  0  0  0  0  0  0
   -2.8668   -7.2146   -9.0465 N   0  0  0  0  0  0  0  0  0  0  0  0
   -2.9606   -6.2911   -7.9955 C   0  0  0  0  0  0  0  0  0  0  0  0
   -2.5664   -6.6814   -6.9049 O   0  0  0  0  0  0  0  0  0  0  0  0
   -4.7814   -4.0791   -6.4669 C   0  0  0  0  0  0  0  0  0  0  0  0
   -5.7291   -4.7864   -6.7891 O   0  0  0  0  0  0  0  0  0  0  0  0
    3.4490   -2.2030    4.4566 H   0  0  0  0  0  0  0  0  0  0  0  0
    4.3167   -1.2726    3.2380 H   0  0  0  0  0  0  0  0  0  0  0  0
    2.1969   -0.9057    6.3289 H   0  0  0  0  0  0  0  0  0  0  0  0
    1.2653    5.4474    7.6737 H   0  0  0  0  0  0  0  0  0  0  0  0
    2.8374    7.3511    7.3654 H   0  0  0  0  0  0  0  0  0  0  0  0
    6.1793    4.6774    7.8808 H   0  0  0  0  0  0  0  0  0  0  0  0
    0.0933    1.2908   10.0045 H   0  0  0  0  0  0  0  0  0  0  0  0
    2.5892    4.0717    5.4760 H   0  0  0  0  0  0  0  0  0  0  0  0
    4.0369    4.8797    3.6519 H   0  0  0  0  0  0  0  0  0  0  0  0
    5.3876    3.2763    2.3031 H   0  0  0  0  0  0  0  0  0  0  0  0
    5.2376    0.8223    2.7790 H   0  0  0  0  0  0  0  0  0  0  0  0
    2.2957    0.8296    2.8353 H   0  0  0  0  0  0  0  0  0  0  0  0
   -0.1792   -0.1760    1.9096 H   0  0  0  0  0  0  0  0  0  0  0  0
    0.9896   -0.5482    0.6316 H   0  0  0  0  0  0  0  0  0  0  0  0
    1.6301    1.9229    0.5781 H   0  0  0  0  0  0  0  0  0  0  0  0
    0.2986    2.2383    1.7268 H   0  0  0  0  0  0  0  0  0  0  0  0
    0.2986    3.2981   -1.0846 H   0  0  0  0  0  0  0  0  0  0  0  0
   -1.1494    3.4063   -0.0473 H   0  0  0  0  0  0  0  0  0  0  0  0
   -2.0503    3.3698   -2.2583 H   0  0  0  0  0  0  0  0  0  0  0  0
   -2.2177    1.6848   -1.7100 H   0  0  0  0  0  0  0  0  0  0  0  0
   -2.2694    1.5207   -4.2395 H   0  0  0  0  0  0  0  0  0  0  0  0
   -0.6703    1.3297   -4.9922 H   0  0  0  0  0  0  0  0  0  0  0  0
   -0.0821   -0.4859   -3.4411 H   0  0  0  0  0  0  0  0  0  0  0  0
   -1.6086   -0.3316   -2.5755 H   0  0  0  0  0  0  0  0  0  0  0  0
   -1.1730   -1.4743   -5.3021 H   0  0  0  0  0  0  0  0  0  0  0  0
   -3.7638   -0.5284   -2.7710 H   0  0  0  0  0  0  0  0  0  0  0  0
   -6.0046   -1.5770   -2.7333 H   0  0  0  0  0  0  0  0  0  0  0  0
   -6.6280   -3.3146   -4.4438 H   0  0  0  0  0  0  0  0  0  0  0  0
   -2.2099   -4.4488   -8.6919 H   0  0  0  0  0  0  0  0  0  0  0  0
   -4.2892   -3.6316   -9.8037 H   0  0  0  0  0  0  0  0  0  0  0  0
   -5.1614   -5.0605   -9.2331 H   0  0  0  0  0  0  0  0  0  0  0  0
   -4.4220   -5.5309  -11.5161 H   0  0  0  0  0  0  0  0  0  0  0  0
   -2.7708   -5.0380  -11.1620 H   0  0  0  0  0  0  0  0  0  0  0  0
   -2.5730   -8.1558   -8.8304 H   0  0  0  0  0  0  0  0  0  0  0  0
  1  2  2  0  0  0  0
  2  3  1  0  0  0  0
  2 28  1  0  0  0  0
  3  4  1  0  0  0  0
  3 57  1  0  0  0  0
  3 58  1  0  0  0  0
  4  5  1  0  0  0  0
  4 27  1  0  0  0  0
  5  6  2  0  0  0  0
  5 59  1  0  0  0  0
  6  7  1  0  0  0  0
  6 22  1  0  0  0  0
  7  8  2  0  0  0  0
  7 20  1  0  0  0  0
  8  9  1  0  0  0  0
  8 17  1  0  0  0  0
  9 10  2  0  0  0  0
  9 15  1  0  0  0  0
 10 11  1  0  0  0  0
 10 60  1  0  0  0  0
 11 12  2  0  0  0  0
 11 61  1  0  0  0  0
 12 13  1  0  0  0  0
 12 14  1  0  0  0  0
 14 15  2  0  0  0  0
 14 62  1  0  0  0  0
 15 16  1  0  0  0  0
 17 18  2  0  0  0  0
 17 19  1  0  0  0  0
 19 20  1  0  0  0  0
 19 63  1  0  0  0  0
 20 21  2  0  0  0  0
 22 23  2  0  0  0  0
 22 27  1  0  0  0  0
 23 24  1  0  0  0  0
 23 64  1  0  0  0  0
 24 25  2  0  0  0  0
 24 65  1  0  0  0  0
 25 26  1  0  0  0  0
 25 66  1  0  0  0  0
 26 27  2  0  0  0  0
 26 67  1  0  0  0  0
 28 29  1  0  0  0  0
 28 68  1  0  0  0  0
 29 30  1  0  0  0  0
 29 69  1  0  0  0  0
 29 70  1  0  0  0  0
 30 31  1  0  0  0  0
 30 71  1  0  0  0  0
 30 72  1  0  0  0  0
 31 32  1  0  0  0  0
 32 33  1  0  0  0  0
 32 73  1  0  0  0  0
 32 74  1  0  0  0  0
 33 34  1  0  0  0  0
 33 75  1  0  0  0  0
 33 76  1  0  0  0  0
 34 35  1  0  0  0  0
 35 36  1  0  0  0  0
 35 77  1  0  0  0  0
 35 78  1  0  0  0  0
 36 37  1  0  0  0  0
 36 79  1  0  0  0  0
 36 80  1  0  0  0  0
 37 38  1  0  0  0  0
 37 81  1  0  0  0  0
 38 39  2  0  0  0  0
 38 43  1  0  0  0  0
 39 40  1  0  0  0  0
 39 82  1  0  0  0  0
 40 41  2  0  0  0  0
 40 83  1  0  0  0  0
 41 42  1  0  0  0  0
 41 84  1  0  0  0  0
 42 43  2  0  0  0  0
 42 55  1  0  0  0  0
 43 44  1  0  0  0  0
 44 45  2  0  0  0  0
 44 46  1  0  0  0  0
 46 47  1  0  0  0  0
 46 55  1  0  0  0  0
 47 48  1  0  0  0  0
 47 53  1  0  0  0  0
 47 85  1  0  0  0  0
 48 49  1  0  0  0  0
 48 86  1  0  0  0  0
 48 87  1  0  0  0  0
 49 50  1  0  0  0  0
 49 88  1  0  0  0  0
 49 89  1  0  0  0  0
 50 51  2  0  0  0  0
 50 52  1  0  0  0  0
 52 53  1  0  0  0  0
 52 90  1  0  0  0  0
 53 54  2  0  0  0  0
 55 56  2  0  0  0  0
M  END
$$$$
protac3895RUN2
  chem.cr 07102519423D
protac3895RUN2
 90 96  0  0  0  0  0  0  0  0999 V2000
   -1.1485   -2.9771    4.0831 O   0  0  0  0  0  0  0  0  0  0  0  0
   -0.1977   -2.2443    3.8493 C   0  0  0  0  0  0  0  0  0  0  0  0
    1.2344   -2.5835    4.2184 C   0  0  0  0  0  0  0  0  0  0  0  0
    2.0603   -1.4164    4.6027 N   0  0  0  0  0  0  0  0  0  0  0  0
    1.5882   -0.6159    5.6459 C   0  0  0  0  0  0  0  0  0  0  0  0
    1.7712    0.7036    5.4068 C   0  0  0  0  0  0  0  0  0  0  0  0
    1.4968    1.7068    6.3101 C   0  0  0  0  0  0  0  0  0  0  0  0
    1.7498    3.0470    6.3373 C   0  0  0  0  0  0  0  0  0  0  0  0
    2.4397    3.8217    5.4307 C   0  0  0  0  0  0  0  0  0  0  0  0
    1.7448    4.8388    4.7438 C   0  0  0  0  0  0  0  0  0  0  0  0
    2.4183    5.6719    3.8337 C   0  0  0  0  0  0  0  0  0  0  0  0
    3.7969    5.5104    3.6295 C   0  0  0  0  0  0  0  0  0  0  0  0
    4.6450    6.5554    2.4996 Cl  0  0  0  0  0  0  0  0  0  0  0  0
    4.5046    4.5227    4.3342 C   0  0  0  0  0  0  0  0  0  0  0  0
    3.8342    3.6833    5.2405 C   0  0  0  0  0  0  0  0  0  0  0  0
    4.7609    2.4719    6.1247 Cl  0  0  0  0  0  0  0  0  0  0  0  0
    1.2774    3.6167    7.4491 C   0  0  0  0  0  0  0  0  0  0  0  0
    1.2756    4.7669    7.8726 O   0  0  0  0  0  0  0  0  0  0  0  0
    0.7111    2.6397    8.2363 N   0  0  0  0  0  0  0  0  0  0  0  0
    0.8512    1.4785    7.4887 C   0  0  0  0  0  0  0  0  0  0  0  0
    0.3595    0.4800    8.0022 O   0  0  0  0  0  0  0  0  0  0  0  0
    2.3353    0.7467    4.1106 C   0  0  0  0  0  0  0  0  0  0  0  0
    2.5106    1.7751    3.1619 C   0  0  0  0  0  0  0  0  0  0  0  0
    3.0904    1.4897    1.9074 C   0  0  0  0  0  0  0  0  0  0  0  0
    3.4235    0.1685    1.5460 C   0  0  0  0  0  0  0  0  0  0  0  0
    3.1332   -0.8844    2.4267 C   0  0  0  0  0  0  0  0  0  0  0  0
    2.5804   -0.5627    3.6730 C   0  0  0  0  0  0  0  0  0  0  0  0
   -0.4018   -1.0784    3.0979 N   0  0  0  0  0  0  0  0  0  0  0  0
   -1.6853   -0.6960    2.4962 C   0  0  0  0  0  0  0  0  0  0  0  0
   -1.7217    0.8105    2.1754 C   0  0  0  0  0  0  0  0  0  0  0  0
   -0.5098    1.1511    1.4808 O   0  0  0  0  0  0  0  0  0  0  0  0
   -0.3630    2.5329    1.1186 C   0  0  0  0  0  0  0  0  0  0  0  0
   -1.0580    2.7841   -0.2366 C   0  0  0  0  0  0  0  0  0  0  0  0
   -0.0974    2.5335   -1.2786 O   0  0  0  0  0  0  0  0  0  0  0  0
   -0.4510    1.5513   -2.2624 C   0  0  0  0  0  0  0  0  0  0  0  0
   -0.2889    0.1435   -1.6519 C   0  0  0  0  0  0  0  0  0  0  0  0
   -0.6061   -0.8730   -2.6681 N   0  0  0  0  0  0  0  0  0  0  0  0
   -1.8816   -1.0840   -3.1771 C   0  0  0  0  0  0  0  0  0  0  0  0
   -3.0581   -0.8271   -2.4314 C   0  0  0  0  0  0  0  0  0  0  0  0
   -4.3411   -1.0473   -2.9912 C   0  0  0  0  0  0  0  0  0  0  0  0
   -4.4739   -1.5281   -4.3101 C   0  0  0  0  0  0  0  0  0  0  0  0
   -3.3040   -1.7805   -5.0345 C   0  0  0  0  0  0  0  0  0  0  0  0
   -2.0442   -1.5666   -4.4843 C   0  0  0  0  0  0  0  0  0  0  0  0
   -1.1131   -1.9313   -5.4269 C   0  0  0  0  0  0  0  0  0  0  0  0
    0.1100   -1.8849   -5.3471 O   0  0  0  0  0  0  0  0  0  0  0  0
   -1.7703   -2.3987   -6.5730 N   0  0  0  0  0  0  0  0  0  0  0  0
   -1.2183   -3.4939   -7.3958 C   0  0  0  0  0  0  0  0  0  0  0  0
   -1.3853   -3.1854   -8.9005 C   0  0  0  0  0  0  0  0  0  0  0  0
   -0.9914   -4.4204   -9.7372 C   0  0  0  0  0  0  0  0  0  0  0  0
   -1.7806   -5.6403   -9.3188 C   0  0  0  0  0  0  0  0  0  0  0  0
   -2.0483   -6.5651  -10.0706 O   0  0  0  0  0  0  0  0  0  0  0  0
   -2.0546   -5.8223   -7.9608 N   0  0  0  0  0  0  0  0  0  0  0  0
   -1.8121   -4.8415   -6.9912 C   0  0  0  0  0  0  0  0  0  0  0  0
   -1.9556   -5.1955   -5.8286 O   0  0  0  0  0  0  0  0  0  0  0  0
   -3.1412   -2.2704   -6.3078 C   0  0  0  0  0  0  0  0  0  0  0  0
   -4.0088   -2.5320   -7.1349 O   0  0  0  0  0  0  0  0  0  0  0  0
    1.2188   -3.2952    5.0527 H   0  0  0  0  0  0  0  0  0  0  0  0
    1.7005   -3.0910    3.3676 H   0  0  0  0  0  0  0  0  0  0  0  0
    1.1925   -1.1242    6.5209 H   0  0  0  0  0  0  0  0  0  0  0  0
    0.6784    4.9722    4.9086 H   0  0  0  0  0  0  0  0  0  0  0  0
    1.8735    6.4422    3.2950 H   0  0  0  0  0  0  0  0  0  0  0  0
    5.5726    4.4073    4.1785 H   0  0  0  0  0  0  0  0  0  0  0  0
    0.0146    2.7926    8.9460 H   0  0  0  0  0  0  0  0  0  0  0  0
    2.1687    2.7777    3.3266 H   0  0  0  0  0  0  0  0  0  0  0  0
    3.2595    2.2983    1.2018 H   0  0  0  0  0  0  0  0  0  0  0  0
    3.8597   -0.0401    0.5710 H   0  0  0  0  0  0  0  0  0  0  0  0
    3.3190   -1.9157    2.1419 H   0  0  0  0  0  0  0  0  0  0  0  0
    0.3917   -0.4561    2.9648 H   0  0  0  0  0  0  0  0  0  0  0  0
   -2.5005   -0.9455    3.1897 H   0  0  0  0  0  0  0  0  0  0  0  0
   -1.8327   -1.2797    1.5789 H   0  0  0  0  0  0  0  0  0  0  0  0
   -1.7862    1.3733    3.1163 H   0  0  0  0  0  0  0  0  0  0  0  0
   -2.6081    1.0421    1.5731 H   0  0  0  0  0  0  0  0  0  0  0  0
    0.6999    2.7905    1.0235 H   0  0  0  0  0  0  0  0  0  0  0  0
   -0.7963    3.1850    1.8870 H   0  0  0  0  0  0  0  0  0  0  0  0
   -1.3771    3.8333   -0.2869 H   0  0  0  0  0  0  0  0  0  0  0  0
   -1.9523    2.1557   -0.3390 H   0  0  0  0  0  0  0  0  0  0  0  0
   -1.4792    1.7053   -2.6172 H   0  0  0  0  0  0  0  0  0  0  0  0
    0.2171    1.6370   -3.1300 H   0  0  0  0  0  0  0  0  0  0  0  0
    0.7482    0.0226   -1.3140 H   0  0  0  0  0  0  0  0  0  0  0  0
   -0.9344    0.0231   -0.7733 H   0  0  0  0  0  0  0  0  0  0  0  0
    0.1500   -1.1792   -3.2725 H   0  0  0  0  0  0  0  0  0  0  0  0
   -2.9891   -0.4643   -1.4101 H   0  0  0  0  0  0  0  0  0  0  0  0
   -5.2300   -0.8610   -2.3963 H   0  0  0  0  0  0  0  0  0  0  0  0
   -5.4490   -1.7138   -4.7529 H   0  0  0  0  0  0  0  0  0  0  0  0
   -0.1403   -3.5615   -7.1874 H   0  0  0  0  0  0  0  0  0  0  0  0
   -0.7822   -2.3089   -9.1754 H   0  0  0  0  0  0  0  0  0  0  0  0
   -2.4315   -2.9318   -9.1126 H   0  0  0  0  0  0  0  0  0  0  0  0
   -1.1683   -4.2215  -10.8007 H   0  0  0  0  0  0  0  0  0  0  0  0
    0.0784   -4.6328   -9.6233 H   0  0  0  0  0  0  0  0  0  0  0  0
   -2.4816   -6.6882   -7.6668 H   0  0  0  0  0  0  0  0  0  0  0  0
  1  2  2  0  0  0  0
  2  3  1  0  0  0  0
  2 28  1  0  0  0  0
  3  4  1  0  0  0  0
  3 57  1  0  0  0  0
  3 58  1  0  0  0  0
  4  5  1  0  0  0  0
  4 27  1  0  0  0  0
  5  6  2  0  0  0  0
  5 59  1  0  0  0  0
  6  7  1  0  0  0  0
  6 22  1  0  0  0  0
  7  8  2  0  0  0  0
  7 20  1  0  0  0  0
  8  9  1  0  0  0  0
  8 17  1  0  0  0  0
  9 10  2  0  0  0  0
  9 15  1  0  0  0  0
 10 11  1  0  0  0  0
 10 60  1  0  0  0  0
 11 12  2  0  0  0  0
 11 61  1  0  0  0  0
 12 13  1  0  0  0  0
 12 14  1  0  0  0  0
 14 15  2  0  0  0  0
 14 62  1  0  0  0  0
 15 16  1  0  0  0  0
 17 18  2  0  0  0  0
 17 19  1  0  0  0  0
 19 20  1  0  0  0  0
 19 63  1  0  0  0  0
 20 21  2  0  0  0  0
 22 23  2  0  0  0  0
 22 27  1  0  0  0  0
 23 24  1  0  0  0  0
 23 64  1  0  0  0  0
 24 25  2  0  0  0  0
 24 65  1  0  0  0  0
 25 26  1  0  0  0  0
 25 66  1  0  0  0  0
 26 27  2  0  0  0  0
 26 67  1  0  0  0  0
 28 29  1  0  0  0  0
 28 68  1  0  0  0  0
 29 30  1  0  0  0  0
 29 69  1  0  0  0  0
 29 70  1  0  0  0  0
 30 31  1  0  0  0  0
 30 71  1  0  0  0  0
 30 72  1  0  0  0  0
 31 32  1  0  0  0  0
 32 33  1  0  0  0  0
 32 73  1  0  0  0  0
 32 74  1  0  0  0  0
 33 34  1  0  0  0  0
 33 75  1  0  0  0  0
 33 76  1  0  0  0  0
 34 35  1  0  0  0  0
 35 36  1  0  0  0  0
 35 77  1  0  0  0  0
 35 78  1  0  0  0  0
 36 37  1  0  0  0  0
 36 79  1  0  0  0  0
 36 80  1  0  0  0  0
 37 38  1  0  0  0  0
 37 81  1  0  0  0  0
 38 39  2  0  0  0  0
 38 43  1  0  0  0  0
 39 40  1  0  0  0  0
 39 82  1  0  0  0  0
 40 41  2  0  0  0  0
 40 83  1  0  0  0  0
 41 42  1  0  0  0  0
 41 84  1  0  0  0  0
 42 43  2  0  0  0  0
 42 55  1  0  0  0  0
 43 44  1  0  0  0  0
 44 45  2  0  0  0  0
 44 46  1  0  0  0  0
 46 47  1  0  0  0  0
 46 55  1  0  0  0  0
 47 48  1  0  0  0  0
 47 53  1  0  0  0  0
 47 85  1  0  0  0  0
 48 49  1  0  0  0  0
 48 86  1  0  0  0  0
 48 87  1  0  0  0  0
 49 50  1  0  0  0  0
 49 88  1  0  0  0  0
 49 89  1  0  0  0  0
 50 51  2  0  0  0  0
 50 52  1  0  0  0  0
 52 53  1  0  0  0  0
 52 90  1  0  0  0  0
 53 54  2  0  0  0  0
 55 56  2  0  0  0  0
M  END
$$$$
protac3895RUN2
  chem.cr 07102519423D
protac3895RUN2
 90 96  0  0  0  0  0  0  0  0999 V2000
   -4.0559   -1.9574    4.8718 O   0  0  0  0  0  0  0  0  0  0  0  0
   -3.6322   -1.4308    3.8520 C   0  0  0  0  0  0  0  0  0  0  0  0
   -2.4302   -1.9331    3.0874 C   0  0  0  0  0  0  0  0  0  0  0  0
   -1.3158   -0.9683    3.0273 N   0  0  0  0  0  0  0  0  0  0  0  0
   -0.7698   -0.4501    4.2085 C   0  0  0  0  0  0  0  0  0  0  0  0
    0.5134   -0.0667    4.0246 C   0  0  0  0  0  0  0  0  0  0  0  0
    1.2737    0.6341    4.9230 C   0  0  0  0  0  0  0  0  0  0  0  0
    2.4394    1.3253    4.7919 C   0  0  0  0  0  0  0  0  0  0  0  0
    3.1288    1.6214    3.6283 C   0  0  0  0  0  0  0  0  0  0  0  0
    2.4606    2.3128    2.5966 C   0  0  0  0  0  0  0  0  0  0  0  0
    3.1329    2.6567    1.4118 C   0  0  0  0  0  0  0  0  0  0  0  0
    4.4875    2.3288    1.2553 C   0  0  0  0  0  0  0  0  0  0  0  0
    5.3286    2.7542   -0.2299 Cl  0  0  0  0  0  0  0  0  0  0  0  0
    5.1715    1.6545    2.2788 C   0  0  0  0  0  0  0  0  0  0  0  0
    4.5020    1.3032    3.4637 C   0  0  0  0  0  0  0  0  0  0  0  0
    5.3917    0.3921    4.6857 Cl  0  0  0  0  0  0  0  0  0  0  0  0
    2.7976    1.8892    5.9522 C   0  0  0  0  0  0  0  0  0  0  0  0
    3.7125    2.6321    6.2837 O   0  0  0  0  0  0  0  0  0  0  0  0
    1.8445    1.5828    6.9016 N   0  0  0  0  0  0  0  0  0  0  0  0
    0.9181    0.7999    6.2231 C   0  0  0  0  0  0  0  0  0  0  0  0
   -0.0212    0.3916    6.8956 O   0  0  0  0  0  0  0  0  0  0  0  0
    0.8376   -0.4937    2.7241 C   0  0  0  0  0  0  0  0  0  0  0  0
    2.0797   -0.7359    2.1042 C   0  0  0  0  0  0  0  0  0  0  0  0
    2.1183   -1.2667    0.7976 C   0  0  0  0  0  0  0  0  0  0  0  0
    0.9330   -1.6526    0.1403 C   0  0  0  0  0  0  0  0  0  0  0  0
   -0.2988   -1.5653    0.8137 C   0  0  0  0  0  0  0  0  0  0  0  0
   -0.3072   -1.0026    2.1000 C   0  0  0  0  0  0  0  0  0  0  0  0
   -4.3094   -0.3242    3.3218 N   0  0  0  0  0  0  0  0  0  0  0  0
   -5.6017    0.1567    3.8337 C   0  0  0  0  0  0  0  0  0  0  0  0
   -5.9671    1.5138    3.2061 C   0  0  0  0  0  0  0  0  0  0  0  0
   -5.9180    1.3381    1.7857 O   0  0  0  0  0  0  0  0  0  0  0  0
   -5.9030    2.5418    1.0099 C   0  0  0  0  0  0  0  0  0  0  0  0
   -5.5848    2.1369   -0.4408 C   0  0  0  0  0  0  0  0  0  0  0  0
   -4.3021    1.5006   -0.4161 O   0  0  0  0  0  0  0  0  0  0  0  0
   -3.7651    1.1237   -1.6837 C   0  0  0  0  0  0  0  0  0  0  0  0
   -2.4889    0.3312   -1.3692 C   0  0  0  0  0  0  0  0  0  0  0  0
   -1.6891    0.1106   -2.5810 N   0  0  0  0  0  0  0  0  0  0  0  0
   -1.3229   -1.1458   -3.0424 C   0  0  0  0  0  0  0  0  0  0  0  0
   -2.1957   -2.2589   -3.0265 C   0  0  0  0  0  0  0  0  0  0  0  0
   -1.7800   -3.5144   -3.5383 C   0  0  0  0  0  0  0  0  0  0  0  0
   -0.4794   -3.6827   -4.0595 C   0  0  0  0  0  0  0  0  0  0  0  0
    0.3767   -2.5743   -4.0595 C   0  0  0  0  0  0  0  0  0  0  0  0
   -0.0425   -1.3367   -3.5721 C   0  0  0  0  0  0  0  0  0  0  0  0
    0.9843   -0.4390   -3.7387 C   0  0  0  0  0  0  0  0  0  0  0  0
    0.9159    0.7853   -3.7357 O   0  0  0  0  0  0  0  0  0  0  0  0
    2.0374   -1.1044   -4.3646 N   0  0  0  0  0  0  0  0  0  0  0  0
    3.2701   -0.4608   -4.8545 C   0  0  0  0  0  0  0  0  0  0  0  0
    3.1701   -0.2091   -6.3732 C   0  0  0  0  0  0  0  0  0  0  0  0
    4.4759    0.4396   -6.8772 C   0  0  0  0  0  0  0  0  0  0  0  0
    5.6906   -0.3689   -6.4825 C   0  0  0  0  0  0  0  0  0  0  0  0
    6.7453   -0.3290   -7.0950 O   0  0  0  0  0  0  0  0  0  0  0  0
    5.6913   -1.0349   -5.2509 N   0  0  0  0  0  0  0  0  0  0  0  0
    4.5327   -1.2348   -4.4856 C   0  0  0  0  0  0  0  0  0  0  0  0
    4.6969   -1.7957   -3.4100 O   0  0  0  0  0  0  0  0  0  0  0  0
    1.6653   -2.4457   -4.5282 C   0  0  0  0  0  0  0  0  0  0  0  0
    2.2556   -3.1967   -5.2961 O   0  0  0  0  0  0  0  0  0  0  0  0
   -2.0663   -2.8518    3.5639 H   0  0  0  0  0  0  0  0  0  0  0  0
   -2.7432   -2.1886    2.0714 H   0  0  0  0  0  0  0  0  0  0  0  0
   -1.4266   -0.3124    5.0662 H   0  0  0  0  0  0  0  0  0  0  0  0
    1.4110    2.5689    2.7106 H   0  0  0  0  0  0  0  0  0  0  0  0
    2.6053    3.1714    0.6135 H   0  0  0  0  0  0  0  0  0  0  0  0
    6.2190    1.3948    2.1522 H   0  0  0  0  0  0  0  0  0  0  0  0
    2.0090    1.5557    7.8951 H   0  0  0  0  0  0  0  0  0  0  0  0
    3.0133   -0.5829    2.6236 H   0  0  0  0  0  0  0  0  0  0  0  0
    3.0775   -1.4195    0.3084 H   0  0  0  0  0  0  0  0  0  0  0  0
    0.9835   -2.0870   -0.8558 H   0  0  0  0  0  0  0  0  0  0  0  0
   -1.2017   -1.9561    0.3589 H   0  0  0  0  0  0  0  0  0  0  0  0
   -3.9441    0.1168    2.4843 H   0  0  0  0  0  0  0  0  0  0  0  0
   -5.5512    0.2524    4.9268 H   0  0  0  0  0  0  0  0  0  0  0  0
   -6.3759   -0.5827    3.5909 H   0  0  0  0  0  0  0  0  0  0  0  0
   -5.2388    2.2686    3.5338 H   0  0  0  0  0  0  0  0  0  0  0  0
   -6.9682    1.8277    3.5303 H   0  0  0  0  0  0  0  0  0  0  0  0
   -5.1261    3.2319    1.3652 H   0  0  0  0  0  0  0  0  0  0  0  0
   -6.8744    3.0492    1.0599 H   0  0  0  0  0  0  0  0  0  0  0  0
   -5.5659    3.0307   -1.0773 H   0  0  0  0  0  0  0  0  0  0  0  0
   -6.3560    1.4513   -0.8144 H   0  0  0  0  0  0  0  0  0  0  0  0
   -4.4669    0.4976   -2.2515 H   0  0  0  0  0  0  0  0  0  0  0  0
   -3.5222    2.0150   -2.2775 H   0  0  0  0  0  0  0  0  0  0  0  0
   -1.8903    0.8974   -0.6425 H   0  0  0  0  0  0  0  0  0  0  0  0
   -2.7597   -0.6207   -0.8962 H   0  0  0  0  0  0  0  0  0  0  0  0
   -1.0409    0.8492   -2.8381 H   0  0  0  0  0  0  0  0  0  0  0  0
   -3.2088   -2.1491   -2.6518 H   0  0  0  0  0  0  0  0  0  0  0  0
   -2.4702   -4.3547   -3.5417 H   0  0  0  0  0  0  0  0  0  0  0  0
   -0.1515   -4.6371   -4.4637 H   0  0  0  0  0  0  0  0  0  0  0  0
    3.3531    0.5145   -4.3556 H   0  0  0  0  0  0  0  0  0  0  0  0
    2.3045    0.4299   -6.5953 H   0  0  0  0  0  0  0  0  0  0  0  0
    3.0080   -1.1646   -6.8901 H   0  0  0  0  0  0  0  0  0  0  0  0
    4.4498    0.5391   -7.9701 H   0  0  0  0  0  0  0  0  0  0  0  0
    4.5760    1.4540   -6.4703 H   0  0  0  0  0  0  0  0  0  0  0  0
    6.5421   -1.4854   -4.9487 H   0  0  0  0  0  0  0  0  0  0  0  0
  1  2  2  0  0  0  0
  2  3  1  0  0  0  0
  2 28  1  0  0  0  0
  3  4  1  0  0  0  0
  3 57  1  0  0  0  0
  3 58  1  0  0  0  0
  4  5  1  0  0  0  0
  4 27  1  0  0  0  0
  5  6  2  0  0  0  0
  5 59  1  0  0  0  0
  6  7  1  0  0  0  0
  6 22  1  0  0  0  0
  7  8  2  0  0  0  0
  7 20  1  0  0  0  0
  8  9  1  0  0  0  0
  8 17  1  0  0  0  0
  9 10  2  0  0  0  0
  9 15  1  0  0  0  0
 10 11  1  0  0  0  0
 10 60  1  0  0  0  0
 11 12  2  0  0  0  0
 11 61  1  0  0  0  0
 12 13  1  0  0  0  0
 12 14  1  0  0  0  0
 14 15  2  0  0  0  0
 14 62  1  0  0  0  0
 15 16  1  0  0  0  0
 17 18  2  0  0  0  0
 17 19  1  0  0  0  0
 19 20  1  0  0  0  0
 19 63  1  0  0  0  0
 20 21  2  0  0  0  0
 22 23  2  0  0  0  0
 22 27  1  0  0  0  0
 23 24  1  0  0  0  0
 23 64  1  0  0  0  0
 24 25  2  0  0  0  0
 24 65  1  0  0  0  0
 25 26  1  0  0  0  0
 25 66  1  0  0  0  0
 26 27  2  0  0  0  0
 26 67  1  0  0  0  0
 28 29  1  0  0  0  0
 28 68  1  0  0  0  0
 29 30  1  0  0  0  0
 29 69  1  0  0  0  0
 29 70  1  0  0  0  0
 30 31  1  0  0  0  0
 30 71  1  0  0  0  0
 30 72  1  0  0  0  0
 31 32  1  0  0  0  0
 32 33  1  0  0  0  0
 32 73  1  0  0  0  0
 32 74  1  0  0  0  0
 33 34  1  0  0  0  0
 33 75  1  0  0  0  0
 33 76  1  0  0  0  0
 34 35  1  0  0  0  0
 35 36  1  0  0  0  0
 35 77  1  0  0  0  0
 35 78  1  0  0  0  0
 36 37  1  0  0  0  0
 36 79  1  0  0  0  0
 36 80  1  0  0  0  0
 37 38  1  0  0  0  0
 37 81  1  0  0  0  0
 38 39  2  0  0  0  0
 38 43  1  0  0  0  0
 39 40  1  0  0  0  0
 39 82  1  0  0  0  0
 40 41  2  0  0  0  0
 40 83  1  0  0  0  0
 41 42  1  0  0  0  0
 41 84  1  0  0  0  0
 42 43  2  0  0  0  0
 42 55  1  0  0  0  0
 43 44  1  0  0  0  0
 44 45  2  0  0  0  0
 44 46  1  0  0  0  0
 46 47  1  0  0  0  0
 46 55  1  0  0  0  0
 47 48  1  0  0  0  0
 47 53  1  0  0  0  0
 47 85  1  0  0  0  0
 48 49  1  0  0  0  0
 48 86  1  0  0  0  0
 48 87  1  0  0  0  0
 49 50  1  0  0  0  0
 49 88  1  0  0  0  0
 49 89  1  0  0  0  0
 50 51  2  0  0  0  0
 50 52  1  0  0  0  0
 52 53  1  0  0  0  0
 52 90  1  0  0  0  0
 53 54  2  0  0  0  0
 55 56  2  0  0  0  0
M  END
$$$$
protac3895RUN2
  chem.cr 07102519423D
protac3895RUN2
 90 96  0  0  0  0  0  0  0  0999 V2000
   -1.5551   -0.3628   -1.5132 O   0  0  0  0  0  0  0  0  0  0  0  0
   -1.0582   -0.9392   -0.5585 C   0  0  0  0  0  0  0  0  0  0  0  0
    0.4297   -1.2090   -0.4833 C   0  0  0  0  0  0  0  0  0  0  0  0
    0.8158   -2.4882    0.1536 N   0  0  0  0  0  0  0  0  0  0  0  0
    1.4512   -3.4775   -0.6118 C   0  0  0  0  0  0  0  0  0  0  0  0
    2.3629   -4.1690    0.1147 C   0  0  0  0  0  0  0  0  0  0  0  0
    3.1082   -5.2549   -0.2796 C   0  0  0  0  0  0  0  0  0  0  0  0
    3.2173   -5.7404   -1.5425 C   0  0  0  0  0  0  0  0  0  0  0  0
    2.6230   -5.2341   -2.6833 C   0  0  0  0  0  0  0  0  0  0  0  0
    3.1693   -4.0967   -3.3091 C   0  0  0  0  0  0  0  0  0  0  0  0
    2.5692   -3.5622   -4.4620 C   0  0  0  0  0  0  0  0  0  0  0  0
    1.4240   -4.1701   -5.0015 C   0  0  0  0  0  0  0  0  0  0  0  0
    0.6832   -3.5070   -6.4520 Cl  0  0  0  0  0  0  0  0  0  0  0  0
    0.8797   -5.3137   -4.3934 C   0  0  0  0  0  0  0  0  0  0  0  0
    1.4754   -5.8458   -3.2362 C   0  0  0  0  0  0  0  0  0  0  0  0
    0.7595   -7.2758   -2.4882 Cl  0  0  0  0  0  0  0  0  0  0  0  0
    3.9967   -6.8225   -1.6017 C   0  0  0  0  0  0  0  0  0  0  0  0
    4.3445   -7.5614   -2.5121 O   0  0  0  0  0  0  0  0  0  0  0  0
    4.4601   -7.0856   -0.3282 N   0  0  0  0  0  0  0  0  0  0  0  0
    3.8442   -6.1229    0.4702 C   0  0  0  0  0  0  0  0  0  0  0  0
    4.0023   -6.3047    1.6672 O   0  0  0  0  0  0  0  0  0  0  0  0
    2.3599   -3.5419    1.3767 C   0  0  0  0  0  0  0  0  0  0  0  0
    3.2558   -3.5959    2.4706 C   0  0  0  0  0  0  0  0  0  0  0  0
    3.0301   -2.7807    3.6000 C   0  0  0  0  0  0  0  0  0  0  0  0
    1.9723   -1.8504    3.6235 C   0  0  0  0  0  0  0  0  0  0  0  0
    1.1559   -1.6984    2.4922 C   0  0  0  0  0  0  0  0  0  0  0  0
    1.3786   -2.5447    1.3979 C   0  0  0  0  0  0  0  0  0  0  0  0
   -1.7216   -0.7395    0.6558 N   0  0  0  0  0  0  0  0  0  0  0  0
   -2.2895   -1.8801    1.3864 C   0  0  0  0  0  0  0  0  0  0  0  0
   -2.5658   -1.5478    2.8630 C   0  0  0  0  0  0  0  0  0  0  0  0
   -3.4960   -0.4590    2.9166 O   0  0  0  0  0  0  0  0  0  0  0  0
   -3.7766    0.0132    4.2429 C   0  0  0  0  0  0  0  0  0  0  0  0
   -4.9580    1.0107    4.1899 C   0  0  0  0  0  0  0  0  0  0  0  0
   -4.4781    2.3625    4.3440 O   0  0  0  0  0  0  0  0  0  0  0  0
   -4.3389    3.1667    3.1575 C   0  0  0  0  0  0  0  0  0  0  0  0
   -3.0958    2.7176    2.3698 C   0  0  0  0  0  0  0  0  0  0  0  0
   -2.7763    3.6711    1.2979 N   0  0  0  0  0  0  0  0  0  0  0  0
   -1.7934    4.6482    1.3950 C   0  0  0  0  0  0  0  0  0  0  0  0
   -1.4665    5.2907    2.6116 C   0  0  0  0  0  0  0  0  0  0  0  0
   -0.4612    6.2883    2.6616 C   0  0  0  0  0  0  0  0  0  0  0  0
    0.2466    6.6519    1.4966 C   0  0  0  0  0  0  0  0  0  0  0  0
   -0.0779    5.9961    0.3028 C   0  0  0  0  0  0  0  0  0  0  0  0
   -1.0769    5.0285    0.2523 C   0  0  0  0  0  0  0  0  0  0  0  0
   -1.1851    4.5820   -1.0440 C   0  0  0  0  0  0  0  0  0  0  0  0
   -2.1999    4.1036   -1.5385 O   0  0  0  0  0  0  0  0  0  0  0  0
   -0.2221    5.2610   -1.8180 N   0  0  0  0  0  0  0  0  0  0  0  0
    0.1787    5.0479   -3.2370 C   0  0  0  0  0  0  0  0  0  0  0  0
   -0.6107    3.9698   -4.0200 C   0  0  0  0  0  0  0  0  0  0  0  0
   -0.2377    2.5437   -3.5389 C   0  0  0  0  0  0  0  0  0  0  0  0
    1.2562    2.3225   -3.4438 C   0  0  0  0  0  0  0  0  0  0  0  0
    1.7745    1.2148   -3.4611 O   0  0  0  0  0  0  0  0  0  0  0  0
    2.1131    3.4219   -3.2945 N   0  0  0  0  0  0  0  0  0  0  0  0
    1.6681    4.7502   -3.3570 C   0  0  0  0  0  0  0  0  0  0  0  0
    2.5049    5.5812   -3.6843 O   0  0  0  0  0  0  0  0  0  0  0  0
    0.4491    6.1434   -0.9568 C   0  0  0  0  0  0  0  0  0  0  0  0
    1.0862    7.0992   -1.3817 O   0  0  0  0  0  0  0  0  0  0  0  0
    0.8336   -1.1818   -1.5022 H   0  0  0  0  0  0  0  0  0  0  0  0
    0.9142   -0.3879    0.0564 H   0  0  0  0  0  0  0  0  0  0  0  0
    1.1103   -3.6201   -1.6334 H   0  0  0  0  0  0  0  0  0  0  0  0
    4.0535   -3.6248   -2.8910 H   0  0  0  0  0  0  0  0  0  0  0  0
    2.9909   -2.6818   -4.9412 H   0  0  0  0  0  0  0  0  0  0  0  0
    0.0031   -5.7925   -4.8224 H   0  0  0  0  0  0  0  0  0  0  0  0
    4.6988   -8.0087   -0.0002 H   0  0  0  0  0  0  0  0  0  0  0  0
    4.1559   -4.1906    2.4593 H   0  0  0  0  0  0  0  0  0  0  0  0
    3.7058   -2.8469    4.4484 H   0  0  0  0  0  0  0  0  0  0  0  0
    1.8293   -1.2124    4.4905 H   0  0  0  0  0  0  0  0  0  0  0  0
    0.3975   -0.9238    2.4578 H   0  0  0  0  0  0  0  0  0  0  0  0
   -2.2417    0.1265    0.7271 H   0  0  0  0  0  0  0  0  0  0  0  0
   -1.6022   -2.7354    1.3303 H   0  0  0  0  0  0  0  0  0  0  0  0
   -3.2301   -2.1766    0.9014 H   0  0  0  0  0  0  0  0  0  0  0  0
   -1.6284   -1.2865    3.3683 H   0  0  0  0  0  0  0  0  0  0  0  0
   -2.9850   -2.4330    3.3590 H   0  0  0  0  0  0  0  0  0  0  0  0
   -2.8960    0.4977    4.6864 H   0  0  0  0  0  0  0  0  0  0  0  0
   -4.0598   -0.8280    4.8899 H   0  0  0  0  0  0  0  0  0  0  0  0
   -5.6278    0.7825    5.0293 H   0  0  0  0  0  0  0  0  0  0  0  0
   -5.5360    0.8830    3.2647 H   0  0  0  0  0  0  0  0  0  0  0  0
   -5.2357    3.1011    2.5260 H   0  0  0  0  0  0  0  0  0  0  0  0
   -4.2176    4.2196    3.4481 H   0  0  0  0  0  0  0  0  0  0  0  0
   -2.2446    2.6162    3.0546 H   0  0  0  0  0  0  0  0  0  0  0  0
   -3.2879    1.7377    1.9212 H   0  0  0  0  0  0  0  0  0  0  0  0
   -3.0249    3.4160    0.3468 H   0  0  0  0  0  0  0  0  0  0  0  0
   -2.0012    5.0386    3.5206 H   0  0  0  0  0  0  0  0  0  0  0  0
   -0.2337    6.7824    3.6026 H   0  0  0  0  0  0  0  0  0  0  0  0
    1.0231    7.4138    1.5171 H   0  0  0  0  0  0  0  0  0  0  0  0
    0.0098    6.0087   -3.7431 H   0  0  0  0  0  0  0  0  0  0  0  0
   -0.3498    4.0603   -5.0849 H   0  0  0  0  0  0  0  0  0  0  0  0
   -1.6933    4.1465   -3.9584 H   0  0  0  0  0  0  0  0  0  0  0  0
   -0.6740    2.3363   -2.5562 H   0  0  0  0  0  0  0  0  0  0  0  0
   -0.6719    1.8001   -4.2170 H   0  0  0  0  0  0  0  0  0  0  0  0
    3.1081    3.2580   -3.3354 H   0  0  0  0  0  0  0  0  0  0  0  0
  1  2  2  0  0  0  0
  2  3  1  0  0  0  0
  2 28  1  0  0  0  0
  3  4  1  0  0  0  0
  3 57  1  0  0  0  0
  3 58  1  0  0  0  0
  4  5  1  0  0  0  0
  4 27  1  0  0  0  0
  5  6  2  0  0  0  0
  5 59  1  0  0  0  0
  6  7  1  0  0  0  0
  6 22  1  0  0  0  0
  7  8  2  0  0  0  0
  7 20  1  0  0  0  0
  8  9  1  0  0  0  0
  8 17  1  0  0  0  0
  9 10  2  0  0  0  0
  9 15  1  0  0  0  0
 10 11  1  0  0  0  0
 10 60  1  0  0  0  0
 11 12  2  0  0  0  0
 11 61  1  0  0  0  0
 12 13  1  0  0  0  0
 12 14  1  0  0  0  0
 14 15  2  0  0  0  0
 14 62  1  0  0  0  0
 15 16  1  0  0  0  0
 17 18  2  0  0  0  0
 17 19  1  0  0  0  0
 19 20  1  0  0  0  0
 19 63  1  0  0  0  0
 20 21  2  0  0  0  0
 22 23  2  0  0  0  0
 22 27  1  0  0  0  0
 23 24  1  0  0  0  0
 23 64  1  0  0  0  0
 24 25  2  0  0  0  0
 24 65  1  0  0  0  0
 25 26  1  0  0  0  0
 25 66  1  0  0  0  0
 26 27  2  0  0  0  0
 26 67  1  0  0  0  0
 28 29  1  0  0  0  0
 28 68  1  0  0  0  0
 29 30  1  0  0  0  0
 29 69  1  0  0  0  0
 29 70  1  0  0  0  0
 30 31  1  0  0  0  0
 30 71  1  0  0  0  0
 30 72  1  0  0  0  0
 31 32  1  0  0  0  0
 32 33  1  0  0  0  0
 32 73  1  0  0  0  0
 32 74  1  0  0  0  0
 33 34  1  0  0  0  0
 33 75  1  0  0  0  0
 33 76  1  0  0  0  0
 34 35  1  0  0  0  0
 35 36  1  0  0  0  0
 35 77  1  0  0  0  0
 35 78  1  0  0  0  0
 36 37  1  0  0  0  0
 36 79  1  0  0  0  0
 36 80  1  0  0  0  0
 37 38  1  0  0  0  0
 37 81  1  0  0  0  0
 38 39  2  0  0  0  0
 38 43  1  0  0  0  0
 39 40  1  0  0  0  0
 39 82  1  0  0  0  0
 40 41  2  0  0  0  0
 40 83  1  0  0  0  0
 41 42  1  0  0  0  0
 41 84  1  0  0  0  0
 42 43  2  0  0  0  0
 42 55  1  0  0  0  0
 43 44  1  0  0  0  0
 44 45  2  0  0  0  0
 44 46  1  0  0  0  0
 46 47  1  0  0  0  0
 46 55  1  0  0  0  0
 47 48  1  0  0  0  0
 47 53  1  0  0  0  0
 47 85  1  0  0  0  0
 48 49  1  0  0  0  0
 48 86  1  0  0  0  0
 48 87  1  0  0  0  0
 49 50  1  0  0  0  0
 49 88  1  0  0  0  0
 49 89  1  0  0  0  0
 50 51  2  0  0  0  0
 50 52  1  0  0  0  0
 52 53  1  0  0  0  0
 52 90  1  0  0  0  0
 53 54  2  0  0  0  0
 55 56  2  0  0  0  0
M  END
$$$$
protac3895RUN2
  chem.cr 07102519423D
protac3895RUN2
 90 96  0  0  0  0  0  0  0  0999 V2000
   -0.5705   -3.1750   -2.7676 O   0  0  0  0  0  0  0  0  0  0  0  0
    0.5838   -3.5750   -2.7226 C   0  0  0  0  0  0  0  0  0  0  0  0
    1.0232   -4.9013   -3.3086 C   0  0  0  0  0  0  0  0  0  0  0  0
    1.8762   -5.7095   -2.4111 N   0  0  0  0  0  0  0  0  0  0  0  0
    1.3249   -6.1101   -1.1887 C   0  0  0  0  0  0  0  0  0  0  0  0
    2.2147   -6.0132   -0.1771 C   0  0  0  0  0  0  0  0  0  0  0  0
    2.0407   -6.3961    1.1301 C   0  0  0  0  0  0  0  0  0  0  0  0
    0.8704   -6.7688    1.7122 C   0  0  0  0  0  0  0  0  0  0  0  0
   -0.3848   -6.8069    1.1271 C   0  0  0  0  0  0  0  0  0  0  0  0
   -1.0061   -8.0538    0.9120 C   0  0  0  0  0  0  0  0  0  0  0  0
   -2.2813   -8.1221    0.3251 C   0  0  0  0  0  0  0  0  0  0  0  0
   -2.9392   -6.9444   -0.0607 C   0  0  0  0  0  0  0  0  0  0  0  0
   -4.5275   -7.0313   -0.8106 Cl  0  0  0  0  0  0  0  0  0  0  0  0
   -2.3365   -5.6962    0.1609 C   0  0  0  0  0  0  0  0  0  0  0  0
   -1.0726   -5.6248    0.7694 C   0  0  0  0  0  0  0  0  0  0  0  0
   -0.3643   -4.0443    1.0616 Cl  0  0  0  0  0  0  0  0  0  0  0  0
    1.0408   -7.1199    2.9874 C   0  0  0  0  0  0  0  0  0  0  0  0
    0.2806   -7.5267    3.8571 O   0  0  0  0  0  0  0  0  0  0  0  0
    2.3739   -6.9602    3.3045 N   0  0  0  0  0  0  0  0  0  0  0  0
    2.9675   -6.5552    2.1115 C   0  0  0  0  0  0  0  0  0  0  0  0
    4.1888   -6.5177    2.1517 O   0  0  0  0  0  0  0  0  0  0  0  0
    3.3704   -5.4708   -0.7692 C   0  0  0  0  0  0  0  0  0  0  0  0
    4.5229   -4.8618   -0.2276 C   0  0  0  0  0  0  0  0  0  0  0  0
    5.5001   -4.3278   -1.0954 C   0  0  0  0  0  0  0  0  0  0  0  0
    5.3204   -4.3401   -2.4923 C   0  0  0  0  0  0  0  0  0  0  0  0
    4.1255   -4.8381   -3.0345 C   0  0  0  0  0  0  0  0  0  0  0  0
    3.1746   -5.3665   -2.1516 C   0  0  0  0  0  0  0  0  0  0  0  0
    1.5760   -2.7604   -2.1532 N   0  0  0  0  0  0  0  0  0  0  0  0
    1.2754   -1.4739   -1.5016 C   0  0  0  0  0  0  0  0  0  0  0  0
    2.3414   -1.1115   -0.4441 C   0  0  0  0  0  0  0  0  0  0  0  0
    1.7554   -0.2489    0.5540 O   0  0  0  0  0  0  0  0  0  0  0  0
    0.9260   -0.9074    1.5307 C   0  0  0  0  0  0  0  0  0  0  0  0
    0.5332    0.0939    2.6341 C   0  0  0  0  0  0  0  0  0  0  0  0
   -0.7041    0.7278    2.2636 O   0  0  0  0  0  0  0  0  0  0  0  0
   -0.6373    2.1343    2.0021 C   0  0  0  0  0  0  0  0  0  0  0  0
   -2.0470    2.5811    1.5740 C   0  0  0  0  0  0  0  0  0  0  0  0
   -2.0280    3.9888    1.1425 N   0  0  0  0  0  0  0  0  0  0  0  0
   -2.5677    5.0906    1.8039 C   0  0  0  0  0  0  0  0  0  0  0  0
   -3.3460    5.0097    2.9848 C   0  0  0  0  0  0  0  0  0  0  0  0
   -3.8572    6.1768    3.6070 C   0  0  0  0  0  0  0  0  0  0  0  0
   -3.5992    7.4529    3.0655 C   0  0  0  0  0  0  0  0  0  0  0  0
   -2.8261    7.5228    1.9036 C   0  0  0  0  0  0  0  0  0  0  0  0
   -2.3326    6.3736    1.2853 C   0  0  0  0  0  0  0  0  0  0  0  0
   -1.6358    6.7535    0.1590 C   0  0  0  0  0  0  0  0  0  0  0  0
   -1.4194    6.0508   -0.8213 O   0  0  0  0  0  0  0  0  0  0  0  0
   -1.7019    8.1545    0.0672 N   0  0  0  0  0  0  0  0  0  0  0  0
   -1.0968    9.0324   -0.9606 C   0  0  0  0  0  0  0  0  0  0  0  0
   -2.1888    9.6328   -1.8733 C   0  0  0  0  0  0  0  0  0  0  0  0
   -2.7128    8.5475   -2.8384 C   0  0  0  0  0  0  0  0  0  0  0  0
   -1.5872    7.8988   -3.6165 C   0  0  0  0  0  0  0  0  0  0  0  0
   -1.7074    7.5155   -4.7708 O   0  0  0  0  0  0  0  0  0  0  0  0
   -0.2962    7.8912   -3.0736 N   0  0  0  0  0  0  0  0  0  0  0  0
   -0.0013    8.3605   -1.7837 C   0  0  0  0  0  0  0  0  0  0  0  0
    1.1784    8.3572   -1.4620 O   0  0  0  0  0  0  0  0  0  0  0  0
   -2.4310    8.6104    1.1687 C   0  0  0  0  0  0  0  0  0  0  0  0
   -2.6295    9.7994    1.3915 O   0  0  0  0  0  0  0  0  0  0  0  0
    0.1272   -5.4825   -3.5559 H   0  0  0  0  0  0  0  0  0  0  0  0
    1.5568   -4.7170   -4.2458 H   0  0  0  0  0  0  0  0  0  0  0  0
    0.3099   -6.4911   -1.2043 H   0  0  0  0  0  0  0  0  0  0  0  0
   -0.4986   -8.9681    1.2094 H   0  0  0  0  0  0  0  0  0  0  0  0
   -2.7596   -9.0856    0.1754 H   0  0  0  0  0  0  0  0  0  0  0  0
   -2.8521   -4.7851   -0.1283 H   0  0  0  0  0  0  0  0  0  0  0  0
    2.8554   -7.5025    4.0051 H   0  0  0  0  0  0  0  0  0  0  0  0
    4.6703   -4.7299    0.8348 H   0  0  0  0  0  0  0  0  0  0  0  0
    6.3997   -3.8841   -0.6759 H   0  0  0  0  0  0  0  0  0  0  0  0
    6.0829   -3.9226   -3.1449 H   0  0  0  0  0  0  0  0  0  0  0  0
    3.9412   -4.7903   -4.1032 H   0  0  0  0  0  0  0  0  0  0  0  0
    2.4921   -3.1776   -2.0152 H   0  0  0  0  0  0  0  0  0  0  0  0
    0.2820   -1.5327   -1.0382 H   0  0  0  0  0  0  0  0  0  0  0  0
    1.2348   -0.6819   -2.2627 H   0  0  0  0  0  0  0  0  0  0  0  0
    3.1838   -0.6105   -0.9403 H   0  0  0  0  0  0  0  0  0  0  0  0
    2.7315   -2.0269    0.0232 H   0  0  0  0  0  0  0  0  0  0  0  0
    1.4740   -1.7380    1.9925 H   0  0  0  0  0  0  0  0  0  0  0  0
    0.0137   -1.3094    1.0732 H   0  0  0  0  0  0  0  0  0  0  0  0
    1.3420    0.8174    2.7996 H   0  0  0  0  0  0  0  0  0  0  0  0
    0.3896   -0.4613    3.5688 H   0  0  0  0  0  0  0  0  0  0  0  0
   -0.3258    2.6811    2.9028 H   0  0  0  0  0  0  0  0  0  0  0  0
    0.0807    2.3422    1.1990 H   0  0  0  0  0  0  0  0  0  0  0  0
   -2.3667    1.9540    0.7322 H   0  0  0  0  0  0  0  0  0  0  0  0
   -2.7517    2.4054    2.3926 H   0  0  0  0  0  0  0  0  0  0  0  0
   -1.5344    4.2063    0.2816 H   0  0  0  0  0  0  0  0  0  0  0  0
   -3.5780    4.0499    3.4298 H   0  0  0  0  0  0  0  0  0  0  0  0
   -4.4549    6.0901    4.5107 H   0  0  0  0  0  0  0  0  0  0  0  0
   -3.9895    8.3556    3.5296 H   0  0  0  0  0  0  0  0  0  0  0  0
   -0.6154    9.8608   -0.4203 H   0  0  0  0  0  0  0  0  0  0  0  0
   -1.7543   10.4585   -2.4545 H   0  0  0  0  0  0  0  0  0  0  0  0
   -3.0082   10.0538   -1.2747 H   0  0  0  0  0  0  0  0  0  0  0  0
   -3.2470    7.7701   -2.2750 H   0  0  0  0  0  0  0  0  0  0  0  0
   -3.4347    8.9833   -3.5399 H   0  0  0  0  0  0  0  0  0  0  0  0
    0.4470    7.4735   -3.6108 H   0  0  0  0  0  0  0  0  0  0  0  0
  1  2  2  0  0  0  0
  2  3  1  0  0  0  0
  2 28  1  0  0  0  0
  3  4  1  0  0  0  0
  3 57  1  0  0  0  0
  3 58  1  0  0  0  0
  4  5  1  0  0  0  0
  4 27  1  0  0  0  0
  5  6  2  0  0  0  0
  5 59  1  0  0  0  0
  6  7  1  0  0  0  0
  6 22  1  0  0  0  0
  7  8  2  0  0  0  0
  7 20  1  0  0  0  0
  8  9  1  0  0  0  0
  8 17  1  0  0  0  0
  9 10  2  0  0  0  0
  9 15  1  0  0  0  0
 10 11  1  0  0  0  0
 10 60  1  0  0  0  0
 11 12  2  0  0  0  0
 11 61  1  0  0  0  0
 12 13  1  0  0  0  0
 12 14  1  0  0  0  0
 14 15  2  0  0  0  0
 14 62  1  0  0  0  0
 15 16  1  0  0  0  0
 17 18  2  0  0  0  0
 17 19  1  0  0  0  0
 19 20  1  0  0  0  0
 19 63  1  0  0  0  0
 20 21  2  0  0  0  0
 22 23  2  0  0  0  0
 22 27  1  0  0  0  0
 23 24  1  0  0  0  0
 23 64  1  0  0  0  0
 24 25  2  0  0  0  0
 24 65  1  0  0  0  0
 25 26  1  0  0  0  0
 25 66  1  0  0  0  0
 26 27  2  0  0  0  0
 26 67  1  0  0  0  0
 28 29  1  0  0  0  0
 28 68  1  0  0  0  0
 29 30  1  0  0  0  0
 29 69  1  0  0  0  0
 29 70  1  0  0  0  0
 30 31  1  0  0  0  0
 30 71  1  0  0  0  0
 30 72  1  0  0  0  0
 31 32  1  0  0  0  0
 32 33  1  0  0  0  0
 32 73  1  0  0  0  0
 32 74  1  0  0  0  0
 33 34  1  0  0  0  0
 33 75  1  0  0  0  0
 33 76  1  0  0  0  0
 34 35  1  0  0  0  0
 35 36  1  0  0  0  0
 35 77  1  0  0  0  0
 35 78  1  0  0  0  0
 36 37  1  0  0  0  0
 36 79  1  0  0  0  0
 36 80  1  0  0  0  0
 37 38  1  0  0  0  0
 37 81  1  0  0  0  0
 38 39  2  0  0  0  0
 38 43  1  0  0  0  0
 39 40  1  0  0  0  0
 39 82  1  0  0  0  0
 40 41  2  0  0  0  0
 40 83  1  0  0  0  0
 41 42  1  0  0  0  0
 41 84  1  0  0  0  0
 42 43  2  0  0  0  0
 42 55  1  0  0  0  0
 43 44  1  0  0  0  0
 44 45  2  0  0  0  0
 44 46  1  0  0  0  0
 46 47  1  0  0  0  0
 46 55  1  0  0  0  0
 47 48  1  0  0  0  0
 47 53  1  0  0  0  0
 47 85  1  0  0  0  0
 48 49  1  0  0  0  0
 48 86  1  0  0  0  0
 48 87  1  0  0  0  0
 49 50  1  0  0  0  0
 49 88  1  0  0  0  0
 49 89  1  0  0  0  0
 50 51  2  0  0  0  0
 50 52  1  0  0  0  0
 52 53  1  0  0  0  0
 52 90  1  0  0  0  0
 53 54  2  0  0  0  0
 55 56  2  0  0  0  0
M  END
$$$$
protac3895RUN2
  chem.cr 07102519423D
protac3895RUN2
 90 96  0  0  0  0  0  0  0  0999 V2000
   -2.3705    1.8017   -3.4945 O   0  0  0  0  0  0  0  0  0  0  0  0
   -1.7543    1.6482   -2.4498 C   0  0  0  0  0  0  0  0  0  0  0  0
   -0.3072    2.0824   -2.2951 C   0  0  0  0  0  0  0  0  0  0  0  0
   -0.1316    3.5485   -2.3013 N   0  0  0  0  0  0  0  0  0  0  0  0
   -0.0419    4.3218   -3.4621 C   0  0  0  0  0  0  0  0  0  0  0  0
   -0.0090    5.6409   -3.1508 C   0  0  0  0  0  0  0  0  0  0  0  0
   -0.0570    6.6995   -4.0143 C   0  0  0  0  0  0  0  0  0  0  0  0
    0.1608    6.6510   -5.3500 C   0  0  0  0  0  0  0  0  0  0  0  0
    0.5882    5.5497   -6.0684 C   0  0  0  0  0  0  0  0  0  0  0  0
   -0.2921    4.9025   -6.9542 C   0  0  0  0  0  0  0  0  0  0  0  0
    0.1338    3.7839   -7.6906 C   0  0  0  0  0  0  0  0  0  0  0  0
    1.4500    3.3132   -7.5491 C   0  0  0  0  0  0  0  0  0  0  0  0
    1.9985    1.9364   -8.4933 Cl  0  0  0  0  0  0  0  0  0  0  0  0
    2.3382    3.9534   -6.6724 C   0  0  0  0  0  0  0  0  0  0  0  0
    1.9149    5.0762   -5.9413 C   0  0  0  0  0  0  0  0  0  0  0  0
    3.0765    5.9009   -4.8984 Cl  0  0  0  0  0  0  0  0  0  0  0  0
    0.0259    7.8499   -5.9191 C   0  0  0  0  0  0  0  0  0  0  0  0
    0.1862    8.2609   -7.0605 O   0  0  0  0  0  0  0  0  0  0  0  0
   -0.3373    8.7521   -4.9380 N   0  0  0  0  0  0  0  0  0  0  0  0
   -0.3571    8.0030   -3.7623 C   0  0  0  0  0  0  0  0  0  0  0  0
   -0.7213    8.6203   -2.7746 O   0  0  0  0  0  0  0  0  0  0  0  0
    0.0342    5.6855   -1.7431 C   0  0  0  0  0  0  0  0  0  0  0  0
    0.3923    6.7210   -0.8517 C   0  0  0  0  0  0  0  0  0  0  0  0
    0.4535    6.4575    0.5343 C   0  0  0  0  0  0  0  0  0  0  0  0
    0.2371    5.1552    1.0295 C   0  0  0  0  0  0  0  0  0  0  0  0
    0.0046    4.0925    0.1389 C   0  0  0  0  0  0  0  0  0  0  0  0
   -0.0819    4.3894   -1.2270 C   0  0  0  0  0  0  0  0  0  0  0  0
   -2.2481    0.6369   -1.6092 N   0  0  0  0  0  0  0  0  0  0  0  0
   -1.9633    0.5346   -0.1679 C   0  0  0  0  0  0  0  0  0  0  0  0
   -3.2298    0.2593    0.6714 C   0  0  0  0  0  0  0  0  0  0  0  0
   -3.5668   -1.1279    0.5490 O   0  0  0  0  0  0  0  0  0  0  0  0
   -4.7843   -1.5028    1.2181 C   0  0  0  0  0  0  0  0  0  0  0  0
   -4.9003   -3.0398    1.2153 C   0  0  0  0  0  0  0  0  0  0  0  0
   -4.0706   -3.5508    2.2714 O   0  0  0  0  0  0  0  0  0  0  0  0
   -4.1693   -4.9649    2.4860 C   0  0  0  0  0  0  0  0  0  0  0  0
   -3.3140   -5.3208    3.7169 C   0  0  0  0  0  0  0  0  0  0  0  0
   -1.8770   -5.1452    3.4391 N   0  0  0  0  0  0  0  0  0  0  0  0
   -0.9181   -6.1533    3.4677 C   0  0  0  0  0  0  0  0  0  0  0  0
   -1.2283   -7.5204    3.2575 C   0  0  0  0  0  0  0  0  0  0  0  0
   -0.2159   -8.5109    3.2711 C   0  0  0  0  0  0  0  0  0  0  0  0
    1.1306   -8.1549    3.4828 C   0  0  0  0  0  0  0  0  0  0  0  0
    1.4292   -6.8003    3.6840 C   0  0  0  0  0  0  0  0  0  0  0  0
    0.4287   -5.8295    3.6853 C   0  0  0  0  0  0  0  0  0  0  0  0
    1.0303   -4.6172    3.9109 C   0  0  0  0  0  0  0  0  0  0  0  0
    0.5060   -3.5231    4.0890 O   0  0  0  0  0  0  0  0  0  0  0  0
    2.4093   -4.8158    4.0264 N   0  0  0  0  0  0  0  0  0  0  0  0
    3.3696   -3.7736    4.4558 C   0  0  0  0  0  0  0  0  0  0  0  0
    3.5092   -2.7089    3.3389 C   0  0  0  0  0  0  0  0  0  0  0  0
    4.7936   -1.8713    3.5194 C   0  0  0  0  0  0  0  0  0  0  0  0
    6.0003   -2.7785    3.5581 C   0  0  0  0  0  0  0  0  0  0  0  0
    7.0854   -2.4928    3.0763 O   0  0  0  0  0  0  0  0  0  0  0  0
    5.9014   -3.9534    4.3067 N   0  0  0  0  0  0  0  0  0  0  0  0
    4.7114   -4.3313    4.9441 C   0  0  0  0  0  0  0  0  0  0  0  0
    4.8338   -4.9857    5.9694 O   0  0  0  0  0  0  0  0  0  0  0  0
    2.6507   -6.1953    3.8831 C   0  0  0  0  0  0  0  0  0  0  0  0
    3.7273   -6.6113    3.4686 O   0  0  0  0  0  0  0  0  0  0  0  0
    0.1321    1.6753   -1.3810 H   0  0  0  0  0  0  0  0  0  0  0  0
    0.2640    1.6695   -3.1364 H   0  0  0  0  0  0  0  0  0  0  0  0
   -0.1290    3.8251   -4.4249 H   0  0  0  0  0  0  0  0  0  0  0  0
   -1.3074    5.2719   -7.0667 H   0  0  0  0  0  0  0  0  0  0  0  0
   -0.5461    3.2960   -8.3819 H   0  0  0  0  0  0  0  0  0  0  0  0
    3.3563    3.5863   -6.5641 H   0  0  0  0  0  0  0  0  0  0  0  0
   -0.1109    9.7348   -4.9636 H   0  0  0  0  0  0  0  0  0  0  0  0
    0.6846    7.7018   -1.1959 H   0  0  0  0  0  0  0  0  0  0  0  0
    0.7061    7.2601    1.2223 H   0  0  0  0  0  0  0  0  0  0  0  0
    0.3071    4.9647    2.0974 H   0  0  0  0  0  0  0  0  0  0  0  0
   -0.0667    3.0759    0.5044 H   0  0  0  0  0  0  0  0  0  0  0  0
   -3.0228    0.0978   -1.9782 H   0  0  0  0  0  0  0  0  0  0  0  0
   -1.5265    1.4780    0.1771 H   0  0  0  0  0  0  0  0  0  0  0  0
   -1.2320   -0.2686    0.0040 H   0  0  0  0  0  0  0  0  0  0  0  0
   -4.0538    0.9029    0.3337 H   0  0  0  0  0  0  0  0  0  0  0  0
   -3.0154    0.4958    1.7213 H   0  0  0  0  0  0  0  0  0  0  0  0
   -5.6490   -1.0757    0.6949 H   0  0  0  0  0  0  0  0  0  0  0  0
   -4.7973   -1.1454    2.2573 H   0  0  0  0  0  0  0  0  0  0  0  0
   -4.5978   -3.4357    0.2373 H   0  0  0  0  0  0  0  0  0  0  0  0
   -5.9489   -3.3157    1.3891 H   0  0  0  0  0  0  0  0  0  0  0  0
   -5.2088   -5.2485    2.6878 H   0  0  0  0  0  0  0  0  0  0  0  0
   -3.8228   -5.5237    1.6083 H   0  0  0  0  0  0  0  0  0  0  0  0
   -3.6008   -4.6675    4.5517 H   0  0  0  0  0  0  0  0  0  0  0  0
   -3.5262   -6.3515    4.0249 H   0  0  0  0  0  0  0  0  0  0  0  0
   -1.5181   -4.1929    3.4346 H   0  0  0  0  0  0  0  0  0  0  0  0
   -2.2506   -7.8255    3.0621 H   0  0  0  0  0  0  0  0  0  0  0  0
   -0.4756   -9.5527    3.1033 H   0  0  0  0  0  0  0  0  0  0  0  0
    1.9207   -8.9013    3.4820 H   0  0  0  0  0  0  0  0  0  0  0  0
    2.9222   -3.2765    5.3280 H   0  0  0  0  0  0  0  0  0  0  0  0
    2.6206   -2.0615    3.3329 H   0  0  0  0  0  0  0  0  0  0  0  0
    3.5434   -3.2190    2.3654 H   0  0  0  0  0  0  0  0  0  0  0  0
    4.8970   -1.1536    2.6959 H   0  0  0  0  0  0  0  0  0  0  0  0
    4.7482   -1.2917    4.4500 H   0  0  0  0  0  0  0  0  0  0  0  0
    6.7429   -4.4722    4.5039 H   0  0  0  0  0  0  0  0  0  0  0  0
  1  2  2  0  0  0  0
  2  3  1  0  0  0  0
  2 28  1  0  0  0  0
  3  4  1  0  0  0  0
  3 57  1  0  0  0  0
  3 58  1  0  0  0  0
  4  5  1  0  0  0  0
  4 27  1  0  0  0  0
  5  6  2  0  0  0  0
  5 59  1  0  0  0  0
  6  7  1  0  0  0  0
  6 22  1  0  0  0  0
  7  8  2  0  0  0  0
  7 20  1  0  0  0  0
  8  9  1  0  0  0  0
  8 17  1  0  0  0  0
  9 10  2  0  0  0  0
  9 15  1  0  0  0  0
 10 11  1  0  0  0  0
 10 60  1  0  0  0  0
 11 12  2  0  0  0  0
 11 61  1  0  0  0  0
 12 13  1  0  0  0  0
 12 14  1  0  0  0  0
 14 15  2  0  0  0  0
 14 62  1  0  0  0  0
 15 16  1  0  0  0  0
 17 18  2  0  0  0  0
 17 19  1  0  0  0  0
 19 20  1  0  0  0  0
 19 63  1  0  0  0  0
 20 21  2  0  0  0  0
 22 23  2  0  0  0  0
 22 27  1  0  0  0  0
 23 24  1  0  0  0  0
 23 64  1  0  0  0  0
 24 25  2  0  0  0  0
 24 65  1  0  0  0  0
 25 26  1  0  0  0  0
 25 66  1  0  0  0  0
 26 27  2  0  0  0  0
 26 67  1  0  0  0  0
 28 29  1  0  0  0  0
 28 68  1  0  0  0  0
 29 30  1  0  0  0  0
 29 69  1  0  0  0  0
 29 70  1  0  0  0  0
 30 31  1  0  0  0  0
 30 71  1  0  0  0  0
 30 72  1  0  0  0  0
 31 32  1  0  0  0  0
 32 33  1  0  0  0  0
 32 73  1  0  0  0  0
 32 74  1  0  0  0  0
 33 34  1  0  0  0  0
 33 75  1  0  0  0  0
 33 76  1  0  0  0  0
 34 35  1  0  0  0  0
 35 36  1  0  0  0  0
 35 77  1  0  0  0  0
 35 78  1  0  0  0  0
 36 37  1  0  0  0  0
 36 79  1  0  0  0  0
 36 80  1  0  0  0  0
 37 38  1  0  0  0  0
 37 81  1  0  0  0  0
 38 39  2  0  0  0  0
 38 43  1  0  0  0  0
 39 40  1  0  0  0  0
 39 82  1  0  0  0  0
 40 41  2  0  0  0  0
 40 83  1  0  0  0  0
 41 42  1  0  0  0  0
 41 84  1  0  0  0  0
 42 43  2  0  0  0  0
 42 55  1  0  0  0  0
 43 44  1  0  0  0  0
 44 45  2  0  0  0  0
 44 46  1  0  0  0  0
 46 47  1  0  0  0  0
 46 55  1  0  0  0  0
 47 48  1  0  0  0  0
 47 53  1  0  0  0  0
 47 85  1  0  0  0  0
 48 49  1  0  0  0  0
 48 86  1  0  0  0  0
 48 87  1  0  0  0  0
 49 50  1  0  0  0  0
 49 88  1  0  0  0  0
 49 89  1  0  0  0  0
 50 51  2  0  0  0  0
 50 52  1  0  0  0  0
 52 53  1  0  0  0  0
 52 90  1  0  0  0  0
 53 54  2  0  0  0  0
 55 56  2  0  0  0  0
M  END
$$$$
protac3895RUN2
  chem.cr 07102519423D
protac3895RUN2
 90 96  0  0  0  0  0  0  0  0999 V2000
   -5.1094    3.2414   -2.0949 O   0  0  0  0  0  0  0  0  0  0  0  0
   -4.5439    2.7843   -3.0799 C   0  0  0  0  0  0  0  0  0  0  0  0
   -3.7230    3.6207   -4.0309 C   0  0  0  0  0  0  0  0  0  0  0  0
   -2.2954    3.2498   -4.0282 N   0  0  0  0  0  0  0  0  0  0  0  0
   -1.3038    3.9372   -3.3202 C   0  0  0  0  0  0  0  0  0  0  0  0
   -0.0804    3.5095   -3.7097 C   0  0  0  0  0  0  0  0  0  0  0  0
    1.1354    4.0745   -3.4287 C   0  0  0  0  0  0  0  0  0  0  0  0
    1.3835    5.0360   -2.5104 C   0  0  0  0  0  0  0  0  0  0  0  0
    0.4825    5.5761   -1.6153 C   0  0  0  0  0  0  0  0  0  0  0  0
    0.1882    4.8755   -0.4311 C   0  0  0  0  0  0  0  0  0  0  0  0
   -0.6978    5.4171    0.5166 C   0  0  0  0  0  0  0  0  0  0  0  0
   -1.2919    6.6667    0.2800 C   0  0  0  0  0  0  0  0  0  0  0  0
   -2.3845    7.3542    1.4736 Cl  0  0  0  0  0  0  0  0  0  0  0  0
   -1.0068    7.3713   -0.9000 C   0  0  0  0  0  0  0  0  0  0  0  0
   -0.1214    6.8310   -1.8482 C   0  0  0  0  0  0  0  0  0  0  0  0
    0.2041    7.7297   -3.3302 Cl  0  0  0  0  0  0  0  0  0  0  0  0
    2.6619    5.4210   -2.5229 C   0  0  0  0  0  0  0  0  0  0  0  0
    3.2980    6.2464   -1.8810 O   0  0  0  0  0  0  0  0  0  0  0  0
    3.3241    4.6725   -3.4779 N   0  0  0  0  0  0  0  0  0  0  0  0
    2.3290    3.8760   -4.0448 C   0  0  0  0  0  0  0  0  0  0  0  0
    2.6886    3.2437   -5.0283 O   0  0  0  0  0  0  0  0  0  0  0  0
   -0.3212    2.4126   -4.5566 C   0  0  0  0  0  0  0  0  0  0  0  0
    0.5101    1.3495   -4.9661 C   0  0  0  0  0  0  0  0  0  0  0  0
   -0.0313    0.3137   -5.7584 C   0  0  0  0  0  0  0  0  0  0  0  0
   -1.3992    0.3039   -6.1034 C   0  0  0  0  0  0  0  0  0  0  0  0
   -2.2575    1.2973   -5.5998 C   0  0  0  0  0  0  0  0  0  0  0  0
   -1.6909    2.3041   -4.8058 C   0  0  0  0  0  0  0  0  0  0  0  0
   -4.4764    1.3936   -3.2533 N   0  0  0  0  0  0  0  0  0  0  0  0
   -4.4189    0.4671   -2.1190 C   0  0  0  0  0  0  0  0  0  0  0  0
   -2.9953   -0.1027   -1.9530 C   0  0  0  0  0  0  0  0  0  0  0  0
   -2.9240   -0.7290   -0.6676 O   0  0  0  0  0  0  0  0  0  0  0  0
   -2.6644    0.1523    0.4386 C   0  0  0  0  0  0  0  0  0  0  0  0
   -3.1339   -0.5494    1.7296 C   0  0  0  0  0  0  0  0  0  0  0  0
   -2.3153   -1.7015    1.9968 O   0  0  0  0  0  0  0  0  0  0  0  0
   -0.9695   -1.4807    2.4530 C   0  0  0  0  0  0  0  0  0  0  0  0
   -1.0091   -0.9402    3.9037 C   0  0  0  0  0  0  0  0  0  0  0  0
    0.0418   -1.5842    4.7051 N   0  0  0  0  0  0  0  0  0  0  0  0
   -0.0194   -2.9397    5.0051 C   0  0  0  0  0  0  0  0  0  0  0  0
   -1.2217   -3.5879    5.3690 C   0  0  0  0  0  0  0  0  0  0  0  0
   -1.2654   -4.9915    5.5468 C   0  0  0  0  0  0  0  0  0  0  0  0
   -0.1097   -5.7747    5.3446 C   0  0  0  0  0  0  0  0  0  0  0  0
    1.0802   -5.1158    5.0051 C   0  0  0  0  0  0  0  0  0  0  0  0
    1.1239   -3.7304    4.8602 C   0  0  0  0  0  0  0  0  0  0  0  0
    2.3922   -3.3845    4.4594 C   0  0  0  0  0  0  0  0  0  0  0  0
    2.7683   -2.3152    3.9886 O   0  0  0  0  0  0  0  0  0  0  0  0
    3.1314   -4.5566    4.2956 N   0  0  0  0  0  0  0  0  0  0  0  0
    4.3752   -4.6413    3.5036 C   0  0  0  0  0  0  0  0  0  0  0  0
    4.0211   -4.6363    1.9947 C   0  0  0  0  0  0  0  0  0  0  0  0
    5.1911   -5.1732    1.1460 C   0  0  0  0  0  0  0  0  0  0  0  0
    5.5886   -6.5495    1.6226 C   0  0  0  0  0  0  0  0  0  0  0  0
    5.9354   -7.4541    0.8802 O   0  0  0  0  0  0  0  0  0  0  0  0
    5.6608   -6.7718    2.9993 N   0  0  0  0  0  0  0  0  0  0  0  0
    5.2552   -5.8134    3.9379 C   0  0  0  0  0  0  0  0  0  0  0  0
    5.6849   -5.9508    5.0739 O   0  0  0  0  0  0  0  0  0  0  0  0
    2.3088   -5.6352    4.6725 C   0  0  0  0  0  0  0  0  0  0  0  0
    2.5212   -6.7775    4.2780 O   0  0  0  0  0  0  0  0  0  0  0  0
   -4.1201    3.5269   -5.0489 H   0  0  0  0  0  0  0  0  0  0  0  0
   -3.8167    4.6733   -3.7387 H   0  0  0  0  0  0  0  0  0  0  0  0
   -1.5997    4.7702   -2.6913 H   0  0  0  0  0  0  0  0  0  0  0  0
    0.6623    3.9159   -0.2461 H   0  0  0  0  0  0  0  0  0  0  0  0
   -0.9118    4.8802    1.4364 H   0  0  0  0  0  0  0  0  0  0  0  0
   -1.4631    8.3415   -1.0744 H   0  0  0  0  0  0  0  0  0  0  0  0
    4.1402    4.9875   -3.9806 H   0  0  0  0  0  0  0  0  0  0  0  0
    1.5406    1.2686   -4.6471 H   0  0  0  0  0  0  0  0  0  0  0  0
    0.6116   -0.4962   -6.0899 H   0  0  0  0  0  0  0  0  0  0  0  0
   -1.7968   -0.4957   -6.7245 H   0  0  0  0  0  0  0  0  0  0  0  0
   -3.3205    1.2691   -5.8149 H   0  0  0  0  0  0  0  0  0  0  0  0
   -4.0807    1.0605   -4.1234 H   0  0  0  0  0  0  0  0  0  0  0  0
   -5.1243   -0.3588   -2.2802 H   0  0  0  0  0  0  0  0  0  0  0  0
   -4.7325    0.9867   -1.2049 H   0  0  0  0  0  0  0  0  0  0  0  0
   -2.2460    0.6960   -2.0416 H   0  0  0  0  0  0  0  0  0  0  0  0
   -2.7999   -0.8338   -2.7476 H   0  0  0  0  0  0  0  0  0  0  0  0
   -3.2189    1.0923    0.3361 H   0  0  0  0  0  0  0  0  0  0  0  0
   -1.5990    0.4013    0.4916 H   0  0  0  0  0  0  0  0  0  0  0  0
   -4.1763   -0.8626    1.5929 H   0  0  0  0  0  0  0  0  0  0  0  0
   -3.1104    0.1578    2.5670 H   0  0  0  0  0  0  0  0  0  0  0  0
   -0.4342   -2.4391    2.4261 H   0  0  0  0  0  0  0  0  0  0  0  0
   -0.4145   -0.7922    1.8047 H   0  0  0  0  0  0  0  0  0  0  0  0
   -0.8578    0.1469    3.8967 H   0  0  0  0  0  0  0  0  0  0  0  0
   -1.9929   -1.1315    4.3495 H   0  0  0  0  0  0  0  0  0  0  0  0
    0.9890   -1.2588    4.5349 H   0  0  0  0  0  0  0  0  0  0  0  0
   -2.1300   -3.0095    5.5023 H   0  0  0  0  0  0  0  0  0  0  0  0
   -2.2063   -5.4702    5.8097 H   0  0  0  0  0  0  0  0  0  0  0  0
   -0.1356   -6.8572    5.4327 H   0  0  0  0  0  0  0  0  0  0  0  0
    4.9649   -3.7392    3.7170 H   0  0  0  0  0  0  0  0  0  0  0  0
    3.7440   -3.6201    1.6796 H   0  0  0  0  0  0  0  0  0  0  0  0
    3.1414   -5.2746    1.8290 H   0  0  0  0  0  0  0  0  0  0  0  0
    4.8993   -5.2223    0.0887 H   0  0  0  0  0  0  0  0  0  0  0  0
    6.0576   -4.5030    1.2085 H   0  0  0  0  0  0  0  0  0  0  0  0
    6.0274   -7.6503    3.3342 H   0  0  0  0  0  0  0  0  0  0  0  0
  1  2  2  0  0  0  0
  2  3  1  0  0  0  0
  2 28  1  0  0  0  0
  3  4  1  0  0  0  0
  3 57  1  0  0  0  0
  3 58  1  0  0  0  0
  4  5  1  0  0  0  0
  4 27  1  0  0  0  0
  5  6  2  0  0  0  0
  5 59  1  0  0  0  0
  6  7  1  0  0  0  0
  6 22  1  0  0  0  0
  7  8  2  0  0  0  0
  7 20  1  0  0  0  0
  8  9  1  0  0  0  0
  8 17  1  0  0  0  0
  9 10  2  0  0  0  0
  9 15  1  0  0  0  0
 10 11  1  0  0  0  0
 10 60  1  0  0  0  0
 11 12  2  0  0  0  0
 11 61  1  0  0  0  0
 12 13  1  0  0  0  0
 12 14  1  0  0  0  0
 14 15  2  0  0  0  0
 14 62  1  0  0  0  0
 15 16  1  0  0  0  0
 17 18  2  0  0  0  0
 17 19  1  0  0  0  0
 19 20  1  0  0  0  0
 19 63  1  0  0  0  0
 20 21  2  0  0  0  0
 22 23  2  0  0  0  0
 22 27  1  0  0  0  0
 23 24  1  0  0  0  0
 23 64  1  0  0  0  0
 24 25  2  0  0  0  0
 24 65  1  0  0  0  0
 25 26  1  0  0  0  0
 25 66  1  0  0  0  0
 26 27  2  0  0  0  0
 26 67  1  0  0  0  0
 28 29  1  0  0  0  0
 28 68  1  0  0  0  0
 29 30  1  0  0  0  0
 29 69  1  0  0  0  0
 29 70  1  0  0  0  0
 30 31  1  0  0  0  0
 30 71  1  0  0  0  0
 30 72  1  0  0  0  0
 31 32  1  0  0  0  0
 32 33  1  0  0  0  0
 32 73  1  0  0  0  0
 32 74  1  0  0  0  0
 33 34  1  0  0  0  0
 33 75  1  0  0  0  0
 33 76  1  0  0  0  0
 34 35  1  0  0  0  0
 35 36  1  0  0  0  0
 35 77  1  0  0  0  0
 35 78  1  0  0  0  0
 36 37  1  0  0  0  0
 36 79  1  0  0  0  0
 36 80  1  0  0  0  0
 37 38  1  0  0  0  0
 37 81  1  0  0  0  0
 38 39  2  0  0  0  0
 38 43  1  0  0  0  0
 39 40  1  0  0  0  0
 39 82  1  0  0  0  0
 40 41  2  0  0  0  0
 40 83  1  0  0  0  0
 41 42  1  0  0  0  0
 41 84  1  0  0  0  0
 42 43  2  0  0  0  0
 42 55  1  0  0  0  0
 43 44  1  0  0  0  0
 44 45  2  0  0  0  0
 44 46  1  0  0  0  0
 46 47  1  0  0  0  0
 46 55  1  0  0  0  0
 47 48  1  0  0  0  0
 47 53  1  0  0  0  0
 47 85  1  0  0  0  0
 48 49  1  0  0  0  0
 48 86  1  0  0  0  0
 48 87  1  0  0  0  0
 49 50  1  0  0  0  0
 49 88  1  0  0  0  0
 49 89  1  0  0  0  0
 50 51  2  0  0  0  0
 50 52  1  0  0  0  0
 52 53  1  0  0  0  0
 52 90  1  0  0  0  0
 53 54  2  0  0  0  0
 55 56  2  0  0  0  0
M  END
$$$$
protac3895RUN2
  chem.cr 07102519423D
protac3895RUN2
 90 96  0  0  0  0  0  0  0  0999 V2000
    0.5277    3.7966   -3.1210 O   0  0  0  0  0  0  0  0  0  0  0  0
    0.9049    3.2791   -2.0791 C   0  0  0  0  0  0  0  0  0  0  0  0
    2.3629    2.9737   -1.7813 C   0  0  0  0  0  0  0  0  0  0  0  0
    2.9430    1.8612   -2.5630 N   0  0  0  0  0  0  0  0  0  0  0  0
    2.2098    0.9058   -3.2594 C   0  0  0  0  0  0  0  0  0  0  0  0
    3.0120   -0.0570   -3.7728 C   0  0  0  0  0  0  0  0  0  0  0  0
    2.6464   -1.0767   -4.6239 C   0  0  0  0  0  0  0  0  0  0  0  0
    1.3795   -1.3839   -5.0108 C   0  0  0  0  0  0  0  0  0  0  0  0
    0.2126   -0.7425   -4.6413 C   0  0  0  0  0  0  0  0  0  0  0  0
   -0.1735    0.4342   -5.3160 C   0  0  0  0  0  0  0  0  0  0  0  0
   -1.3021    1.1554   -4.8895 C   0  0  0  0  0  0  0  0  0  0  0  0
   -2.0776    0.6756   -3.8209 C   0  0  0  0  0  0  0  0  0  0  0  0
   -3.4733    1.5875   -3.2609 Cl  0  0  0  0  0  0  0  0  0  0  0  0
   -1.7421   -0.5346   -3.1941 C   0  0  0  0  0  0  0  0  0  0  0  0
   -0.5981   -1.2411   -3.5990 C   0  0  0  0  0  0  0  0  0  0  0  0
   -0.2014   -2.7490   -2.7787 Cl  0  0  0  0  0  0  0  0  0  0  0  0
    1.3473   -2.3983   -5.8746 C   0  0  0  0  0  0  0  0  0  0  0  0
    0.4456   -2.9549   -6.4842 O   0  0  0  0  0  0  0  0  0  0  0  0
    2.6401   -2.8365   -6.0703 N   0  0  0  0  0  0  0  0  0  0  0  0
    3.4181   -1.9555   -5.3234 C   0  0  0  0  0  0  0  0  0  0  0  0
    4.6172   -2.0898   -5.5110 O   0  0  0  0  0  0  0  0  0  0  0  0
    4.2989    0.2593   -3.2747 C   0  0  0  0  0  0  0  0  0  0  0  0
    5.5123   -0.4639   -3.2179 C   0  0  0  0  0  0  0  0  0  0  0  0
    6.6471    0.1173   -2.6077 C   0  0  0  0  0  0  0  0  0  0  0  0
    6.5720    1.3796   -1.9833 C   0  0  0  0  0  0  0  0  0  0  0  0
    5.3440    2.0590   -1.9327 C   0  0  0  0  0  0  0  0  0  0  0  0
    4.2443    1.4704   -2.5696 C   0  0  0  0  0  0  0  0  0  0  0  0
   -0.0229    3.2945   -1.0301 N   0  0  0  0  0  0  0  0  0  0  0  0
   -0.0968    2.2886    0.0457 C   0  0  0  0  0  0  0  0  0  0  0  0
    0.0577    0.8357   -0.4487 C   0  0  0  0  0  0  0  0  0  0  0  0
    1.3829    0.4108   -0.1126 O   0  0  0  0  0  0  0  0  0  0  0  0
    1.6727   -0.9644   -0.4034 C   0  0  0  0  0  0  0  0  0  0  0  0
    3.0006   -1.3357    0.2871 C   0  0  0  0  0  0  0  0  0  0  0  0
    2.9287   -1.1543    1.7213 O   0  0  0  0  0  0  0  0  0  0  0  0
    2.2021   -2.1221    2.5161 C   0  0  0  0  0  0  0  0  0  0  0  0
    0.6966   -1.7602    2.6277 C   0  0  0  0  0  0  0  0  0  0  0  0
    0.5252   -0.3056    2.5443 N   0  0  0  0  0  0  0  0  0  0  0  0
   -0.2908    0.4783    3.3472 C   0  0  0  0  0  0  0  0  0  0  0  0
    0.2049    1.7337    3.7588 C   0  0  0  0  0  0  0  0  0  0  0  0
   -0.5527    2.5923    4.5878 C   0  0  0  0  0  0  0  0  0  0  0  0
   -1.8334    2.2075    5.0241 C   0  0  0  0  0  0  0  0  0  0  0  0
   -2.3259    0.9686    4.6013 C   0  0  0  0  0  0  0  0  0  0  0  0
   -1.5892    0.1207    3.7670 C   0  0  0  0  0  0  0  0  0  0  0  0
   -2.3849   -0.9720    3.4742 C   0  0  0  0  0  0  0  0  0  0  0  0
   -2.3240   -1.6926    2.4852 O   0  0  0  0  0  0  0  0  0  0  0  0
   -3.6164   -0.7986    4.1197 N   0  0  0  0  0  0  0  0  0  0  0  0
   -4.7002   -1.8071    4.1406 C   0  0  0  0  0  0  0  0  0  0  0  0
   -5.7962   -1.5035    3.0945 C   0  0  0  0  0  0  0  0  0  0  0  0
   -6.7585   -0.4043    3.5981 C   0  0  0  0  0  0  0  0  0  0  0  0
   -7.2797   -0.6850    4.9908 C   0  0  0  0  0  0  0  0  0  0  0  0
   -8.3584   -0.2797    5.3958 O   0  0  0  0  0  0  0  0  0  0  0  0
   -6.5372   -1.4954    5.8584 N   0  0  0  0  0  0  0  0  0  0  0  0
   -5.2817   -2.0290    5.5318 C   0  0  0  0  0  0  0  0  0  0  0  0
   -4.7705   -2.7705    6.3599 O   0  0  0  0  0  0  0  0  0  0  0  0
   -3.5436    0.3913    4.8544 C   0  0  0  0  0  0  0  0  0  0  0  0
   -4.4953    0.8888    5.4436 O   0  0  0  0  0  0  0  0  0  0  0  0
    2.9495    3.8682   -2.0144 H   0  0  0  0  0  0  0  0  0  0  0  0
    2.5024    2.7494   -0.7188 H   0  0  0  0  0  0  0  0  0  0  0  0
    1.1510    1.0784   -3.3644 H   0  0  0  0  0  0  0  0  0  0  0  0
    0.4352    0.8148   -6.1329 H   0  0  0  0  0  0  0  0  0  0  0  0
   -1.5668    2.0913   -5.3757 H   0  0  0  0  0  0  0  0  0  0  0  0
   -2.3618   -0.9185   -2.3875 H   0  0  0  0  0  0  0  0  0  0  0  0
    2.9588   -3.2729   -6.9213 H   0  0  0  0  0  0  0  0  0  0  0  0
    5.6097   -1.4752   -3.5750 H   0  0  0  0  0  0  0  0  0  0  0  0
    7.5868   -0.4291   -2.5941 H   0  0  0  0  0  0  0  0  0  0  0  0
    7.4514    1.8045   -1.5054 H   0  0  0  0  0  0  0  0  0  0  0  0
    5.2511    3.0016   -1.4024 H   0  0  0  0  0  0  0  0  0  0  0  0
   -0.8390    3.8734   -1.1895 H   0  0  0  0  0  0  0  0  0  0  0  0
   -1.0776    2.3820    0.5301 H   0  0  0  0  0  0  0  0  0  0  0  0
    0.6599    2.5043    0.8121 H   0  0  0  0  0  0  0  0  0  0  0  0
   -0.1273    0.7639   -1.5270 H   0  0  0  0  0  0  0  0  0  0  0  0
   -0.6807    0.2045    0.0638 H   0  0  0  0  0  0  0  0  0  0  0  0
    1.7967   -1.1054   -1.4849 H   0  0  0  0  0  0  0  0  0  0  0  0
    0.8706   -1.6303   -0.0683 H   0  0  0  0  0  0  0  0  0  0  0  0
    3.7893   -0.6944   -0.1269 H   0  0  0  0  0  0  0  0  0  0  0  0
    3.2650   -2.3712    0.0426 H   0  0  0  0  0  0  0  0  0  0  0  0
    2.3313   -3.1416    2.1312 H   0  0  0  0  0  0  0  0  0  0  0  0
    2.6150   -2.1113    3.5334 H   0  0  0  0  0  0  0  0  0  0  0  0
    0.1297   -2.2532    1.8282 H   0  0  0  0  0  0  0  0  0  0  0  0
    0.3018   -2.1352    3.5813 H   0  0  0  0  0  0  0  0  0  0  0  0
    1.2630    0.1735    2.0358 H   0  0  0  0  0  0  0  0  0  0  0  0
    1.2009    2.0377    3.4499 H   0  0  0  0  0  0  0  0  0  0  0  0
   -0.1407    3.5490    4.8975 H   0  0  0  0  0  0  0  0  0  0  0  0
   -2.4313    2.8521    5.6622 H   0  0  0  0  0  0  0  0  0  0  0  0
   -4.2409   -2.7616    3.8536 H   0  0  0  0  0  0  0  0  0  0  0  0
   -6.3729   -2.4207    2.9151 H   0  0  0  0  0  0  0  0  0  0  0  0
   -5.3415   -1.2186    2.1359 H   0  0  0  0  0  0  0  0  0  0  0  0
   -6.2560    0.5694    3.5973 H   0  0  0  0  0  0  0  0  0  0  0  0
   -7.6072   -0.3065    2.9100 H   0  0  0  0  0  0  0  0  0  0  0  0
   -6.9061   -1.6733    6.7801 H   0  0  0  0  0  0  0  0  0  0  0  0
  1  2  2  0  0  0  0
  2  3  1  0  0  0  0
  2 28  1  0  0  0  0
  3  4  1  0  0  0  0
  3 57  1  0  0  0  0
  3 58  1  0  0  0  0
  4  5  1  0  0  0  0
  4 27  1  0  0  0  0
  5  6  2  0  0  0  0
  5 59  1  0  0  0  0
  6  7  1  0  0  0  0
  6 22  1  0  0  0  0
  7  8  2  0  0  0  0
  7 20  1  0  0  0  0
  8  9  1  0  0  0  0
  8 17  1  0  0  0  0
  9 10  2  0  0  0  0
  9 15  1  0  0  0  0
 10 11  1  0  0  0  0
 10 60  1  0  0  0  0
 11 12  2  0  0  0  0
 11 61  1  0  0  0  0
 12 13  1  0  0  0  0
 12 14  1  0  0  0  0
 14 15  2  0  0  0  0
 14 62  1  0  0  0  0
 15 16  1  0  0  0  0
 17 18  2  0  0  0  0
 17 19  1  0  0  0  0
 19 20  1  0  0  0  0
 19 63  1  0  0  0  0
 20 21  2  0  0  0  0
 22 23  2  0  0  0  0
 22 27  1  0  0  0  0
 23 24  1  0  0  0  0
 23 64  1  0  0  0  0
 24 25  2  0  0  0  0
 24 65  1  0  0  0  0
 25 26  1  0  0  0  0
 25 66  1  0  0  0  0
 26 27  2  0  0  0  0
 26 67  1  0  0  0  0
 28 29  1  0  0  0  0
 28 68  1  0  0  0  0
 29 30  1  0  0  0  0
 29 69  1  0  0  0  0
 29 70  1  0  0  0  0
 30 31  1  0  0  0  0
 30 71  1  0  0  0  0
 30 72  1  0  0  0  0
 31 32  1  0  0  0  0
 32 33  1  0  0  0  0
 32 73  1  0  0  0  0
 32 74  1  0  0  0  0
 33 34  1  0  0  0  0
 33 75  1  0  0  0  0
 33 76  1  0  0  0  0
 34 35  1  0  0  0  0
 35 36  1  0  0  0  0
 35 77  1  0  0  0  0
 35 78  1  0  0  0  0
 36 37  1  0  0  0  0
 36 79  1  0  0  0  0
 36 80  1  0  0  0  0
 37 38  1  0  0  0  0
 37 81  1  0  0  0  0
 38 39  2  0  0  0  0
 38 43  1  0  0  0  0
 39 40  1  0  0  0  0
 39 82  1  0  0  0  0
 40 41  2  0  0  0  0
 40 83  1  0  0  0  0
 41 42  1  0  0  0  0
 41 84  1  0  0  0  0
 42 43  2  0  0  0  0
 42 55  1  0  0  0  0
 43 44  1  0  0  0  0
 44 45  2  0  0  0  0
 44 46  1  0  0  0  0
 46 47  1  0  0  0  0
 46 55  1  0  0  0  0
 47 48  1  0  0  0  0
 47 53  1  0  0  0  0
 47 85  1  0  0  0  0
 48 49  1  0  0  0  0
 48 86  1  0  0  0  0
 48 87  1  0  0  0  0
 49 50  1  0  0  0  0
 49 88  1  0  0  0  0
 49 89  1  0  0  0  0
 50 51  2  0  0  0  0
 50 52  1  0  0  0  0
 52 53  1  0  0  0  0
 52 90  1  0  0  0  0
 53 54  2  0  0  0  0
 55 56  2  0  0  0  0
M  END
$$$$
protac3895RUN2
  chem.cr 07102519423D
protac3895RUN2
 90 96  0  0  0  0  0  0  0  0999 V2000
    3.8063    3.7805    3.0849 O   0  0  0  0  0  0  0  0  0  0  0  0
    3.2214    3.5591    2.0335 C   0  0  0  0  0  0  0  0  0  0  0  0
    2.0301    4.3675    1.5641 C   0  0  0  0  0  0  0  0  0  0  0  0
    2.0173    4.6931    0.1194 N   0  0  0  0  0  0  0  0  0  0  0  0
    1.0278    4.1986   -0.7387 C   0  0  0  0  0  0  0  0  0  0  0  0
    1.5124    4.0329   -1.9919 C   0  0  0  0  0  0  0  0  0  0  0  0
    0.8873    3.4461   -3.0594 C   0  0  0  0  0  0  0  0  0  0  0  0
   -0.4318    3.1525   -3.1504 C   0  0  0  0  0  0  0  0  0  0  0  0
   -1.4068    3.4771   -2.2283 C   0  0  0  0  0  0  0  0  0  0  0  0
   -1.7791    4.8279   -2.0837 C   0  0  0  0  0  0  0  0  0  0  0  0
   -2.7697    5.1974   -1.1592 C   0  0  0  0  0  0  0  0  0  0  0  0
   -3.3914    4.2159   -0.3727 C   0  0  0  0  0  0  0  0  0  0  0  0
   -4.6425    4.6771    0.7741 Cl  0  0  0  0  0  0  0  0  0  0  0  0
   -3.0264    2.8664   -0.5090 C   0  0  0  0  0  0  0  0  0  0  0  0
   -2.0393    2.4924   -1.4372 C   0  0  0  0  0  0  0  0  0  0  0  0
   -1.6021    0.7879   -1.5793 Cl  0  0  0  0  0  0  0  0  0  0  0  0
   -0.7313    2.5463   -4.3000 C   0  0  0  0  0  0  0  0  0  0  0  0
   -1.7727    2.1247   -4.7843 O   0  0  0  0  0  0  0  0  0  0  0  0
    0.4306    2.4359   -5.0387 N   0  0  0  0  0  0  0  0  0  0  0  0
    1.4200    2.9700   -4.2159 C   0  0  0  0  0  0  0  0  0  0  0  0
    2.5603    2.8138   -4.6277 O   0  0  0  0  0  0  0  0  0  0  0  0
    2.8235    4.5426   -1.9473 C   0  0  0  0  0  0  0  0  0  0  0  0
    3.7231    4.9204   -2.9689 C   0  0  0  0  0  0  0  0  0  0  0  0
    4.9586    5.5087   -2.6202 C   0  0  0  0  0  0  0  0  0  0  0  0
    5.2763    5.7907   -1.2747 C   0  0  0  0  0  0  0  0  0  0  0  0
    4.3367    5.5247   -0.2658 C   0  0  0  0  0  0  0  0  0  0  0  0
    3.1311    4.9189   -0.6382 C   0  0  0  0  0  0  0  0  0  0  0  0
    3.6894    2.5368    1.1939 N   0  0  0  0  0  0  0  0  0  0  0  0
    4.9871    1.8885    1.4266 C   0  0  0  0  0  0  0  0  0  0  0  0
    5.4556    1.0564    0.2170 C   0  0  0  0  0  0  0  0  0  0  0  0
    5.8011   -0.2695    0.6590 O   0  0  0  0  0  0  0  0  0  0  0  0
    4.7231   -1.1851    0.9434 C   0  0  0  0  0  0  0  0  0  0  0  0
    3.9851   -1.5134   -0.3769 C   0  0  0  0  0  0  0  0  0  0  0  0
    3.4081   -2.8320   -0.3068 O   0  0  0  0  0  0  0  0  0  0  0  0
    2.2606   -3.0247    0.5397 C   0  0  0  0  0  0  0  0  0  0  0  0
    1.0709   -2.2300   -0.0363 C   0  0  0  0  0  0  0  0  0  0  0  0
   -0.1990   -2.7892    0.4513 N   0  0  0  0  0  0  0  0  0  0  0  0
   -0.9979   -3.7171   -0.2110 C   0  0  0  0  0  0  0  0  0  0  0  0
   -0.7085   -4.2320   -1.4993 C   0  0  0  0  0  0  0  0  0  0  0  0
   -1.5724   -5.1647   -2.1259 C   0  0  0  0  0  0  0  0  0  0  0  0
   -2.7445   -5.6110   -1.4791 C   0  0  0  0  0  0  0  0  0  0  0  0
   -3.0173   -5.1031   -0.2034 C   0  0  0  0  0  0  0  0  0  0  0  0
   -2.1616   -4.1858    0.4114 C   0  0  0  0  0  0  0  0  0  0  0  0
   -2.6724   -3.8996    1.6544 C   0  0  0  0  0  0  0  0  0  0  0  0
   -2.1363   -3.2896    2.5723 O   0  0  0  0  0  0  0  0  0  0  0  0
   -3.8215   -4.6673    1.8467 N   0  0  0  0  0  0  0  0  0  0  0  0
   -4.7546   -4.5094    2.9786 C   0  0  0  0  0  0  0  0  0  0  0  0
   -4.9665   -5.8555    3.7306 C   0  0  0  0  0  0  0  0  0  0  0  0
   -6.4535   -6.2799    3.7851 C   0  0  0  0  0  0  0  0  0  0  0  0
   -7.3374   -5.1105    4.1410 C   0  0  0  0  0  0  0  0  0  0  0  0
   -8.3099   -5.1772    4.8767 O   0  0  0  0  0  0  0  0  0  0  0  0
   -7.1574   -3.9473    3.3935 N   0  0  0  0  0  0  0  0  0  0  0  0
   -6.0406   -3.7966    2.5636 C   0  0  0  0  0  0  0  0  0  0  0  0
   -6.0603   -2.8229    1.8222 O   0  0  0  0  0  0  0  0  0  0  0  0
   -4.0580   -5.3721    0.6592 C   0  0  0  0  0  0  0  0  0  0  0  0
   -4.9137   -6.2455    0.5673 O   0  0  0  0  0  0  0  0  0  0  0  0
    1.1192    3.8187    1.8276 H   0  0  0  0  0  0  0  0  0  0  0  0
    2.0194    5.3104    2.1230 H   0  0  0  0  0  0  0  0  0  0  0  0
    0.0717    3.9151   -0.3090 H   0  0  0  0  0  0  0  0  0  0  0  0
   -1.2964    5.5880   -2.6952 H   0  0  0  0  0  0  0  0  0  0  0  0
   -3.0615    6.2401   -1.0608 H   0  0  0  0  0  0  0  0  0  0  0  0
   -3.5156    2.1078    0.0966 H   0  0  0  0  0  0  0  0  0  0  0  0
    0.5971    1.7211   -5.7291 H   0  0  0  0  0  0  0  0  0  0  0  0
    3.4795    4.8341   -4.0176 H   0  0  0  0  0  0  0  0  0  0  0  0
    5.6595    5.7828   -3.4037 H   0  0  0  0  0  0  0  0  0  0  0  0
    6.2214    6.2664   -1.0277 H   0  0  0  0  0  0  0  0  0  0  0  0
    4.5302    5.8090    0.7650 H   0  0  0  0  0  0  0  0  0  0  0  0
    3.3014    2.4994    0.2579 H   0  0  0  0  0  0  0  0  0  0  0  0
    4.9287    1.2668    2.3296 H   0  0  0  0  0  0  0  0  0  0  0  0
    5.7320    2.6721    1.6229 H   0  0  0  0  0  0  0  0  0  0  0  0
    6.3420    1.5435   -0.2139 H   0  0  0  0  0  0  0  0  0  0  0  0
    4.6885    1.0322   -0.5666 H   0  0  0  0  0  0  0  0  0  0  0  0
    4.0245   -0.7744    1.6836 H   0  0  0  0  0  0  0  0  0  0  0  0
    5.1466   -2.1127    1.3523 H   0  0  0  0  0  0  0  0  0  0  0  0
    4.7148   -1.4923   -1.1966 H   0  0  0  0  0  0  0  0  0  0  0  0
    3.2281   -0.7493   -0.5864 H   0  0  0  0  0  0  0  0  0  0  0  0
    2.0051   -4.0939    0.5527 H   0  0  0  0  0  0  0  0  0  0  0  0
    2.4629   -2.7200    1.5751 H   0  0  0  0  0  0  0  0  0  0  0  0
    1.1515   -1.1820    0.2772 H   0  0  0  0  0  0  0  0  0  0  0  0
    1.1124   -2.2440   -1.1326 H   0  0  0  0  0  0  0  0  0  0  0  0
   -0.5112   -2.5338    1.3836 H   0  0  0  0  0  0  0  0  0  0  0  0
    0.1855   -3.9235   -2.0286 H   0  0  0  0  0  0  0  0  0  0  0  0
   -1.3269   -5.5403   -3.1162 H   0  0  0  0  0  0  0  0  0  0  0  0
   -3.4138   -6.3279   -1.9470 H   0  0  0  0  0  0  0  0  0  0  0  0
   -4.2726   -3.8274    3.6923 H   0  0  0  0  0  0  0  0  0  0  0  0
   -4.5850   -5.7454    4.7541 H   0  0  0  0  0  0  0  0  0  0  0  0
   -4.3715   -6.6549    3.2655 H   0  0  0  0  0  0  0  0  0  0  0  0
   -6.7634   -6.6695    2.8074 H   0  0  0  0  0  0  0  0  0  0  0  0
   -6.5930   -7.0915    4.5103 H   0  0  0  0  0  0  0  0  0  0  0  0
   -7.8849   -3.2478    3.3752 H   0  0  0  0  0  0  0  0  0  0  0  0
  1  2  2  0  0  0  0
  2  3  1  0  0  0  0
  2 28  1  0  0  0  0
  3  4  1  0  0  0  0
  3 57  1  0  0  0  0
  3 58  1  0  0  0  0
  4  5  1  0  0  0  0
  4 27  1  0  0  0  0
  5  6  2  0  0  0  0
  5 59  1  0  0  0  0
  6  7  1  0  0  0  0
  6 22  1  0  0  0  0
  7  8  2  0  0  0  0
  7 20  1  0  0  0  0
  8  9  1  0  0  0  0
  8 17  1  0  0  0  0
  9 10  2  0  0  0  0
  9 15  1  0  0  0  0
 10 11  1  0  0  0  0
 10 60  1  0  0  0  0
 11 12  2  0  0  0  0
 11 61  1  0  0  0  0
 12 13  1  0  0  0  0
 12 14  1  0  0  0  0
 14 15  2  0  0  0  0
 14 62  1  0  0  0  0
 15 16  1  0  0  0  0
 17 18  2  0  0  0  0
 17 19  1  0  0  0  0
 19 20  1  0  0  0  0
 19 63  1  0  0  0  0
 20 21  2  0  0  0  0
 22 23  2  0  0  0  0
 22 27  1  0  0  0  0
 23 24  1  0  0  0  0
 23 64  1  0  0  0  0
 24 25  2  0  0  0  0
 24 65  1  0  0  0  0
 25 26  1  0  0  0  0
 25 66  1  0  0  0  0
 26 27  2  0  0  0  0
 26 67  1  0  0  0  0
 28 29  1  0  0  0  0
 28 68  1  0  0  0  0
 29 30  1  0  0  0  0
 29 69  1  0  0  0  0
 29 70  1  0  0  0  0
 30 31  1  0  0  0  0
 30 71  1  0  0  0  0
 30 72  1  0  0  0  0
 31 32  1  0  0  0  0
 32 33  1  0  0  0  0
 32 73  1  0  0  0  0
 32 74  1  0  0  0  0
 33 34  1  0  0  0  0
 33 75  1  0  0  0  0
 33 76  1  0  0  0  0
 34 35  1  0  0  0  0
 35 36  1  0  0  0  0
 35 77  1  0  0  0  0
 35 78  1  0  0  0  0
 36 37  1  0  0  0  0
 36 79  1  0  0  0  0
 36 80  1  0  0  0  0
 37 38  1  0  0  0  0
 37 81  1  0  0  0  0
 38 39  2  0  0  0  0
 38 43  1  0  0  0  0
 39 40  1  0  0  0  0
 39 82  1  0  0  0  0
 40 41  2  0  0  0  0
 40 83  1  0  0  0  0
 41 42  1  0  0  0  0
 41 84  1  0  0  0  0
 42 43  2  0  0  0  0
 42 55  1  0  0  0  0
 43 44  1  0  0  0  0
 44 45  2  0  0  0  0
 44 46  1  0  0  0  0
 46 47  1  0  0  0  0
 46 55  1  0  0  0  0
 47 48  1  0  0  0  0
 47 53  1  0  0  0  0
 47 85  1  0  0  0  0
 48 49  1  0  0  0  0
 48 86  1  0  0  0  0
 48 87  1  0  0  0  0
 49 50  1  0  0  0  0
 49 88  1  0  0  0  0
 49 89  1  0  0  0  0
 50 51  2  0  0  0  0
 50 52  1  0  0  0  0
 52 53  1  0  0  0  0
 52 90  1  0  0  0  0
 53 54  2  0  0  0  0
 55 56  2  0  0  0  0
M  END
$$$$
protac3895RUN2
  chem.cr 07102519423D
protac3895RUN2
 90 96  0  0  0  0  0  0  0  0999 V2000
   -4.7396    2.4019   -4.4574 O   0  0  0  0  0  0  0  0  0  0  0  0
   -3.6969    2.1049   -3.8909 C   0  0  0  0  0  0  0  0  0  0  0  0
   -2.4551    2.9638   -3.9852 C   0  0  0  0  0  0  0  0  0  0  0  0
   -2.3107    3.9013   -2.8626 N   0  0  0  0  0  0  0  0  0  0  0  0
   -1.6957    3.5862   -1.6503 C   0  0  0  0  0  0  0  0  0  0  0  0
   -1.8991    4.5755   -0.7504 C   0  0  0  0  0  0  0  0  0  0  0  0
   -1.6353    4.5418    0.5961 C   0  0  0  0  0  0  0  0  0  0  0  0
   -0.9435    3.5800    1.2664 C   0  0  0  0  0  0  0  0  0  0  0  0
   -0.3181    2.4633    0.7439 C   0  0  0  0  0  0  0  0  0  0  0  0
    1.0648    2.5072    0.4739 C   0  0  0  0  0  0  0  0  0  0  0  0
    1.7407    1.3574    0.0301 C   0  0  0  0  0  0  0  0  0  0  0  0
    1.0344    0.1598   -0.1570 C   0  0  0  0  0  0  0  0  0  0  0  0
    1.8864   -1.2866   -0.6842 Cl  0  0  0  0  0  0  0  0  0  0  0  0
   -0.3439    0.1055    0.1038 C   0  0  0  0  0  0  0  0  0  0  0  0
   -1.0159    1.2430    0.5798 C   0  0  0  0  0  0  0  0  0  0  0  0
   -2.7337    1.1191    0.9574 Cl  0  0  0  0  0  0  0  0  0  0  0  0
   -0.8936    3.8254    2.5746 C   0  0  0  0  0  0  0  0  0  0  0  0
   -0.3766    3.2429    3.5205 O   0  0  0  0  0  0  0  0  0  0  0  0
   -1.6007    4.9840    2.8215 N   0  0  0  0  0  0  0  0  0  0  0  0
   -2.0357    5.4020    1.5672 C   0  0  0  0  0  0  0  0  0  0  0  0
   -2.7478    6.3968    1.6000 O   0  0  0  0  0  0  0  0  0  0  0  0
   -2.5347    5.6101   -1.4812 C   0  0  0  0  0  0  0  0  0  0  0  0
   -2.7110    6.9915   -1.2368 C   0  0  0  0  0  0  0  0  0  0  0  0
   -3.3533    7.7993   -2.2057 C   0  0  0  0  0  0  0  0  0  0  0  0
   -3.7592    7.2610   -3.4460 C   0  0  0  0  0  0  0  0  0  0  0  0
   -3.4807    5.9179   -3.7454 C   0  0  0  0  0  0  0  0  0  0  0  0
   -2.8514    5.1460   -2.7620 C   0  0  0  0  0  0  0  0  0  0  0  0
   -3.4705    0.7415   -3.6522 N   0  0  0  0  0  0  0  0  0  0  0  0
   -3.6836   -0.2794   -4.6892 C   0  0  0  0  0  0  0  0  0  0  0  0
   -4.3189   -1.5624   -4.1307 C   0  0  0  0  0  0  0  0  0  0  0  0
   -3.3140   -2.2672   -3.3930 O   0  0  0  0  0  0  0  0  0  0  0  0
   -3.7210   -3.5736   -2.9625 C   0  0  0  0  0  0  0  0  0  0  0  0
   -2.5081   -4.2752   -2.3289 C   0  0  0  0  0  0  0  0  0  0  0  0
   -2.3666   -3.7916   -0.9871 O   0  0  0  0  0  0  0  0  0  0  0  0
   -1.1663   -4.2026   -0.3258 C   0  0  0  0  0  0  0  0  0  0  0  0
   -1.2892   -3.7055    1.1230 C   0  0  0  0  0  0  0  0  0  0  0  0
    0.0244   -3.7182    1.7896 N   0  0  0  0  0  0  0  0  0  0  0  0
    0.5786   -2.6564    2.4976 C   0  0  0  0  0  0  0  0  0  0  0  0
   -0.1739   -1.5331    2.9187 C   0  0  0  0  0  0  0  0  0  0  0  0
    0.4405   -0.4538    3.5945 C   0  0  0  0  0  0  0  0  0  0  0  0
    1.8202   -0.4829    3.8897 C   0  0  0  0  0  0  0  0  0  0  0  0
    2.5515   -1.6105    3.4890 C   0  0  0  0  0  0  0  0  0  0  0  0
    1.9453   -2.6688    2.8146 C   0  0  0  0  0  0  0  0  0  0  0  0
    2.9163   -3.6077    2.5520 C   0  0  0  0  0  0  0  0  0  0  0  0
    2.7843   -4.7207    2.0556 O   0  0  0  0  0  0  0  0  0  0  0  0
    4.1293   -3.1693    3.0951 N   0  0  0  0  0  0  0  0  0  0  0  0
    5.4496   -3.7106    2.7013 C   0  0  0  0  0  0  0  0  0  0  0  0
    6.3566   -3.9851    3.9207 C   0  0  0  0  0  0  0  0  0  0  0  0
    7.6851   -4.6041    3.4312 C   0  0  0  0  0  0  0  0  0  0  0  0
    8.3465   -3.7483    2.3719 C   0  0  0  0  0  0  0  0  0  0  0  0
    9.5385   -3.8055    2.1196 O   0  0  0  0  0  0  0  0  0  0  0  0
    7.5435   -3.0327    1.4767 N   0  0  0  0  0  0  0  0  0  0  0  0
    6.1667   -2.8406    1.6735 C   0  0  0  0  0  0  0  0  0  0  0  0
    5.5966   -2.1636    0.8296 O   0  0  0  0  0  0  0  0  0  0  0  0
    3.8874   -1.9028    3.6485 C   0  0  0  0  0  0  0  0  0  0  0  0
    4.7496   -1.2431    4.2221 O   0  0  0  0  0  0  0  0  0  0  0  0
   -1.5631    2.3322   -4.0384 H   0  0  0  0  0  0  0  0  0  0  0  0
   -2.4996    3.5432   -4.9142 H   0  0  0  0  0  0  0  0  0  0  0  0
   -1.2669    2.5976   -1.5415 H   0  0  0  0  0  0  0  0  0  0  0  0
    1.6193    3.4269    0.6340 H   0  0  0  0  0  0  0  0  0  0  0  0
    2.8124    1.3838   -0.1554 H   0  0  0  0  0  0  0  0  0  0  0  0
   -0.8853   -0.8236   -0.0389 H   0  0  0  0  0  0  0  0  0  0  0  0
   -1.4847    5.5845    3.6220 H   0  0  0  0  0  0  0  0  0  0  0  0
   -2.3186    7.4780   -0.3569 H   0  0  0  0  0  0  0  0  0  0  0  0
   -3.5118    8.8553   -2.0006 H   0  0  0  0  0  0  0  0  0  0  0  0
   -4.2350    7.8988   -4.1856 H   0  0  0  0  0  0  0  0  0  0  0  0
   -3.7309    5.5022   -4.7162 H   0  0  0  0  0  0  0  0  0  0  0  0
   -3.3048    0.4348   -2.7019 H   0  0  0  0  0  0  0  0  0  0  0  0
   -2.7197   -0.5291   -5.1533 H   0  0  0  0  0  0  0  0  0  0  0  0
   -4.3401    0.1256   -5.4719 H   0  0  0  0  0  0  0  0  0  0  0  0
   -4.6650   -2.1770   -4.9718 H   0  0  0  0  0  0  0  0  0  0  0  0
   -5.1842   -1.3186   -3.4983 H   0  0  0  0  0  0  0  0  0  0  0  0
   -4.0624   -4.1682   -3.8189 H   0  0  0  0  0  0  0  0  0  0  0  0
   -4.5404   -3.5071   -2.2358 H   0  0  0  0  0  0  0  0  0  0  0  0
   -1.6123   -4.0636   -2.9278 H   0  0  0  0  0  0  0  0  0  0  0  0
   -2.6708   -5.3613   -2.3219 H   0  0  0  0  0  0  0  0  0  0  0  0
   -1.0539   -5.2943   -0.3437 H   0  0  0  0  0  0  0  0  0  0  0  0
   -0.2941   -3.7505   -0.8160 H   0  0  0  0  0  0  0  0  0  0  0  0
   -1.7120   -2.6963    1.0987 H   0  0  0  0  0  0  0  0  0  0  0  0
   -1.9922   -4.3418    1.6768 H   0  0  0  0  0  0  0  0  0  0  0  0
    0.6596   -4.4812    1.5847 H   0  0  0  0  0  0  0  0  0  0  0  0
   -1.2390   -1.4743    2.7309 H   0  0  0  0  0  0  0  0  0  0  0  0
   -0.1575    0.4043    3.8940 H   0  0  0  0  0  0  0  0  0  0  0  0
    2.3013    0.3392    4.4157 H   0  0  0  0  0  0  0  0  0  0  0  0
    5.2659   -4.6748    2.2081 H   0  0  0  0  0  0  0  0  0  0  0  0
    5.8500   -4.6452    4.6375 H   0  0  0  0  0  0  0  0  0  0  0  0
    6.5694   -3.0430    4.4399 H   0  0  0  0  0  0  0  0  0  0  0  0
    8.3777   -4.7309    4.2726 H   0  0  0  0  0  0  0  0  0  0  0  0
    7.5078   -5.6067    3.0195 H   0  0  0  0  0  0  0  0  0  0  0  0
    7.9923   -2.5473    0.7139 H   0  0  0  0  0  0  0  0  0  0  0  0
  1  2  2  0  0  0  0
  2  3  1  0  0  0  0
  2 28  1  0  0  0  0
  3  4  1  0  0  0  0
  3 57  1  0  0  0  0
  3 58  1  0  0  0  0
  4  5  1  0  0  0  0
  4 27  1  0  0  0  0
  5  6  2  0  0  0  0
  5 59  1  0  0  0  0
  6  7  1  0  0  0  0
  6 22  1  0  0  0  0
  7  8  2  0  0  0  0
  7 20  1  0  0  0  0
  8  9  1  0  0  0  0
  8 17  1  0  0  0  0
  9 10  2  0  0  0  0
  9 15  1  0  0  0  0
 10 11  1  0  0  0  0
 10 60  1  0  0  0  0
 11 12  2  0  0  0  0
 11 61  1  0  0  0  0
 12 13  1  0  0  0  0
 12 14  1  0  0  0  0
 14 15  2  0  0  0  0
 14 62  1  0  0  0  0
 15 16  1  0  0  0  0
 17 18  2  0  0  0  0
 17 19  1  0  0  0  0
 19 20  1  0  0  0  0
 19 63  1  0  0  0  0
 20 21  2  0  0  0  0
 22 23  2  0  0  0  0
 22 27  1  0  0  0  0
 23 24  1  0  0  0  0
 23 64  1  0  0  0  0
 24 25  2  0  0  0  0
 24 65  1  0  0  0  0
 25 26  1  0  0  0  0
 25 66  1  0  0  0  0
 26 27  2  0  0  0  0
 26 67  1  0  0  0  0
 28 29  1  0  0  0  0
 28 68  1  0  0  0  0
 29 30  1  0  0  0  0
 29 69  1  0  0  0  0
 29 70  1  0  0  0  0
 30 31  1  0  0  0  0
 30 71  1  0  0  0  0
 30 72  1  0  0  0  0
 31 32  1  0  0  0  0
 32 33  1  0  0  0  0
 32 73  1  0  0  0  0
 32 74  1  0  0  0  0
 33 34  1  0  0  0  0
 33 75  1  0  0  0  0
 33 76  1  0  0  0  0
 34 35  1  0  0  0  0
 35 36  1  0  0  0  0
 35 77  1  0  0  0  0
 35 78  1  0  0  0  0
 36 37  1  0  0  0  0
 36 79  1  0  0  0  0
 36 80  1  0  0  0  0
 37 38  1  0  0  0  0
 37 81  1  0  0  0  0
 38 39  2  0  0  0  0
 38 43  1  0  0  0  0
 39 40  1  0  0  0  0
 39 82  1  0  0  0  0
 40 41  2  0  0  0  0
 40 83  1  0  0  0  0
 41 42  1  0  0  0  0
 41 84  1  0  0  0  0
 42 43  2  0  0  0  0
 42 55  1  0  0  0  0
 43 44  1  0  0  0  0
 44 45  2  0  0  0  0
 44 46  1  0  0  0  0
 46 47  1  0  0  0  0
 46 55  1  0  0  0  0
 47 48  1  0  0  0  0
 47 53  1  0  0  0  0
 47 85  1  0  0  0  0
 48 49  1  0  0  0  0
 48 86  1  0  0  0  0
 48 87  1  0  0  0  0
 49 50  1  0  0  0  0
 49 88  1  0  0  0  0
 49 89  1  0  0  0  0
 50 51  2  0  0  0  0
 50 52  1  0  0  0  0
 52 53  1  0  0  0  0
 52 90  1  0  0  0  0
 53 54  2  0  0  0  0
 55 56  2  0  0  0  0
M  END
$$$$
protac3895RUN2
  chem.cr 07102519423D
protac3895RUN2
 90 96  0  0  0  0  0  0  0  0999 V2000
   -3.7527    2.5739   -5.1911 O   0  0  0  0  0  0  0  0  0  0  0  0
   -3.7006    3.4298   -4.3192 C   0  0  0  0  0  0  0  0  0  0  0  0
   -3.1558    4.8179   -4.5504 C   0  0  0  0  0  0  0  0  0  0  0  0
   -1.9116    5.1511   -3.8204 N   0  0  0  0  0  0  0  0  0  0  0  0
   -1.0542    4.2116   -3.2244 C   0  0  0  0  0  0  0  0  0  0  0  0
    0.1340    4.7784   -2.9141 C   0  0  0  0  0  0  0  0  0  0  0  0
    1.1411    4.2391   -2.1553 C   0  0  0  0  0  0  0  0  0  0  0  0
    1.2498    2.9452   -1.7573 C   0  0  0  0  0  0  0  0  0  0  0  0
    0.4293    1.8899   -2.1123 C   0  0  0  0  0  0  0  0  0  0  0  0
    0.4335    1.4394   -3.4472 C   0  0  0  0  0  0  0  0  0  0  0  0
   -0.3497    0.3374   -3.8289 C   0  0  0  0  0  0  0  0  0  0  0  0
   -1.1198   -0.3389   -2.8712 C   0  0  0  0  0  0  0  0  0  0  0  0
   -2.0879   -1.7307   -3.3391 Cl  0  0  0  0  0  0  0  0  0  0  0  0
   -1.1259    0.0956   -1.5371 C   0  0  0  0  0  0  0  0  0  0  0  0
   -0.3644    1.2131   -1.1569 C   0  0  0  0  0  0  0  0  0  0  0  0
   -0.4303    1.7422    0.5244 Cl  0  0  0  0  0  0  0  0  0  0  0  0
    2.3380    2.7450   -1.0081 C   0  0  0  0  0  0  0  0  0  0  0  0
    2.8394    1.7538   -0.4952 O   0  0  0  0  0  0  0  0  0  0  0  0
    2.9711    3.9593   -0.8482 N   0  0  0  0  0  0  0  0  0  0  0  0
    2.2130    4.8599   -1.5912 C   0  0  0  0  0  0  0  0  0  0  0  0
    2.5945    6.0179   -1.5151 O   0  0  0  0  0  0  0  0  0  0  0  0
    0.0800    6.0690   -3.4782 C   0  0  0  0  0  0  0  0  0  0  0  0
    1.0947    6.9945   -3.8101 C   0  0  0  0  0  0  0  0  0  0  0  0
    0.7563    8.1865   -4.4880 C   0  0  0  0  0  0  0  0  0  0  0  0
   -0.5675    8.4369   -4.9020 C   0  0  0  0  0  0  0  0  0  0  0  0
   -1.5608    7.4676   -4.6833 C   0  0  0  0  0  0  0  0  0  0  0  0
   -1.1995    6.3029   -3.9917 C   0  0  0  0  0  0  0  0  0  0  0  0
   -4.0774    3.0926   -3.0106 N   0  0  0  0  0  0  0  0  0  0  0  0
   -4.2427    1.6901   -2.6035 C   0  0  0  0  0  0  0  0  0  0  0  0
   -4.3296    1.5153   -1.0812 C   0  0  0  0  0  0  0  0  0  0  0  0
   -4.3382    0.1045   -0.8468 O   0  0  0  0  0  0  0  0  0  0  0  0
   -4.5332   -0.2957    0.5142 C   0  0  0  0  0  0  0  0  0  0  0  0
   -4.4522   -1.8345    0.5574 C   0  0  0  0  0  0  0  0  0  0  0  0
   -3.2536   -2.2116    1.2505 O   0  0  0  0  0  0  0  0  0  0  0  0
   -3.0549   -3.6279    1.3462 C   0  0  0  0  0  0  0  0  0  0  0  0
   -2.0566   -3.8998    2.4874 C   0  0  0  0  0  0  0  0  0  0  0  0
   -0.6646   -3.9206    2.0138 N   0  0  0  0  0  0  0  0  0  0  0  0
    0.3116   -3.0919    2.5457 C   0  0  0  0  0  0  0  0  0  0  0  0
    0.1069   -1.7075    2.7333 C   0  0  0  0  0  0  0  0  0  0  0  0
    1.1268   -0.8899    3.2798 C   0  0  0  0  0  0  0  0  0  0  0  0
    2.3674   -1.4469    3.6612 C   0  0  0  0  0  0  0  0  0  0  0  0
    2.5564   -2.8219    3.4699 C   0  0  0  0  0  0  0  0  0  0  0  0
    1.5536   -3.6211    2.9198 C   0  0  0  0  0  0  0  0  0  0  0  0
    2.0122   -4.9166    2.8933 C   0  0  0  0  0  0  0  0  0  0  0  0
    1.3770   -5.9412    2.6647 O   0  0  0  0  0  0  0  0  0  0  0  0
    3.2847   -4.9484    3.4695 N   0  0  0  0  0  0  0  0  0  0  0  0
    4.0567   -6.1851    3.7233 C   0  0  0  0  0  0  0  0  0  0  0  0
    3.7348   -6.7764    5.1159 C   0  0  0  0  0  0  0  0  0  0  0  0
    4.5735   -6.0850    6.2127 C   0  0  0  0  0  0  0  0  0  0  0  0
    6.0496   -6.1210    5.8901 C   0  0  0  0  0  0  0  0  0  0  0  0
    6.9235   -6.2558    6.7329 O   0  0  0  0  0  0  0  0  0  0  0  0
    6.4531   -6.0902    4.5506 N   0  0  0  0  0  0  0  0  0  0  0  0
    5.5530   -6.0264    3.4749 C   0  0  0  0  0  0  0  0  0  0  0  0
    6.0498   -6.0732    2.3579 O   0  0  0  0  0  0  0  0  0  0  0  0
    3.6345   -3.6239    3.7790 C   0  0  0  0  0  0  0  0  0  0  0  0
    4.6208   -3.3285    4.4428 O   0  0  0  0  0  0  0  0  0  0  0  0
   -2.9595    4.9343   -5.6234 H   0  0  0  0  0  0  0  0  0  0  0  0
   -3.9249    5.5501   -4.2808 H   0  0  0  0  0  0  0  0  0  0  0  0
   -1.4462    3.2332   -2.9711 H   0  0  0  0  0  0  0  0  0  0  0  0
    1.0512    1.9448   -4.1839 H   0  0  0  0  0  0  0  0  0  0  0  0
   -0.3458   -0.0040   -4.8604 H   0  0  0  0  0  0  0  0  0  0  0  0
   -1.7218   -0.4357   -0.7994 H   0  0  0  0  0  0  0  0  0  0  0  0
    3.9363    4.0863   -0.5897 H   0  0  0  0  0  0  0  0  0  0  0  0
    2.1398    6.7952   -3.6244 H   0  0  0  0  0  0  0  0  0  0  0  0
    1.5369    8.9041   -4.7231 H   0  0  0  0  0  0  0  0  0  0  0  0
   -0.8039    9.3523   -5.4388 H   0  0  0  0  0  0  0  0  0  0  0  0
   -2.5653    7.6068   -5.0666 H   0  0  0  0  0  0  0  0  0  0  0  0
   -4.0499    3.8148   -2.3003 H   0  0  0  0  0  0  0  0  0  0  0  0
   -3.3935    1.1082   -2.9850 H   0  0  0  0  0  0  0  0  0  0  0  0
   -5.1484    1.2852   -3.0734 H   0  0  0  0  0  0  0  0  0  0  0  0
   -5.2460    1.9866   -0.7024 H   0  0  0  0  0  0  0  0  0  0  0  0
   -3.4617    1.9814   -0.5963 H   0  0  0  0  0  0  0  0  0  0  0  0
   -5.5206    0.0264    0.8683 H   0  0  0  0  0  0  0  0  0  0  0  0
   -3.7691    0.1434    1.1712 H   0  0  0  0  0  0  0  0  0  0  0  0
   -4.4558   -2.2410   -0.4631 H   0  0  0  0  0  0  0  0  0  0  0  0
   -5.3329   -2.2246    1.0830 H   0  0  0  0  0  0  0  0  0  0  0  0
   -4.0010   -4.1273    1.5932 H   0  0  0  0  0  0  0  0  0  0  0  0
   -2.6871   -4.0427    0.3973 H   0  0  0  0  0  0  0  0  0  0  0  0
   -2.1881   -3.1562    3.2845 H   0  0  0  0  0  0  0  0  0  0  0  0
   -2.2881   -4.8807    2.9237 H   0  0  0  0  0  0  0  0  0  0  0  0
   -0.3092   -4.8246    1.7208 H   0  0  0  0  0  0  0  0  0  0  0  0
   -0.8375   -1.2608    2.4365 H   0  0  0  0  0  0  0  0  0  0  0  0
    0.9542    0.1759    3.4043 H   0  0  0  0  0  0  0  0  0  0  0  0
    3.1561   -0.8323    4.0892 H   0  0  0  0  0  0  0  0  0  0  0  0
    3.7106   -6.9156    2.9800 H   0  0  0  0  0  0  0  0  0  0  0  0
    3.9728   -7.8487    5.1117 H   0  0  0  0  0  0  0  0  0  0  0  0
    2.6593   -6.6867    5.3258 H   0  0  0  0  0  0  0  0  0  0  0  0
    4.2627   -5.0404    6.3303 H   0  0  0  0  0  0  0  0  0  0  0  0
    4.4015   -6.5723    7.1800 H   0  0  0  0  0  0  0  0  0  0  0  0
    7.4411   -6.0849    4.3479 H   0  0  0  0  0  0  0  0  0  0  0  0
  1  2  2  0  0  0  0
  2  3  1  0  0  0  0
  2 28  1  0  0  0  0
  3  4  1  0  0  0  0
  3 57  1  0  0  0  0
  3 58  1  0  0  0  0
  4  5  1  0  0  0  0
  4 27  1  0  0  0  0
  5  6  2  0  0  0  0
  5 59  1  0  0  0  0
  6  7  1  0  0  0  0
  6 22  1  0  0  0  0
  7  8  2  0  0  0  0
  7 20  1  0  0  0  0
  8  9  1  0  0  0  0
  8 17  1  0  0  0  0
  9 10  2  0  0  0  0
  9 15  1  0  0  0  0
 10 11  1  0  0  0  0
 10 60  1  0  0  0  0
 11 12  2  0  0  0  0
 11 61  1  0  0  0  0
 12 13  1  0  0  0  0
 12 14  1  0  0  0  0
 14 15  2  0  0  0  0
 14 62  1  0  0  0  0
 15 16  1  0  0  0  0
 17 18  2  0  0  0  0
 17 19  1  0  0  0  0
 19 20  1  0  0  0  0
 19 63  1  0  0  0  0
 20 21  2  0  0  0  0
 22 23  2  0  0  0  0
 22 27  1  0  0  0  0
 23 24  1  0  0  0  0
 23 64  1  0  0  0  0
 24 25  2  0  0  0  0
 24 65  1  0  0  0  0
 25 26  1  0  0  0  0
 25 66  1  0  0  0  0
 26 27  2  0  0  0  0
 26 67  1  0  0  0  0
 28 29  1  0  0  0  0
 28 68  1  0  0  0  0
 29 30  1  0  0  0  0
 29 69  1  0  0  0  0
 29 70  1  0  0  0  0
 30 31  1  0  0  0  0
 30 71  1  0  0  0  0
 30 72  1  0  0  0  0
 31 32  1  0  0  0  0
 32 33  1  0  0  0  0
 32 73  1  0  0  0  0
 32 74  1  0  0  0  0
 33 34  1  0  0  0  0
 33 75  1  0  0  0  0
 33 76  1  0  0  0  0
 34 35  1  0  0  0  0
 35 36  1  0  0  0  0
 35 77  1  0  0  0  0
 35 78  1  0  0  0  0
 36 37  1  0  0  0  0
 36 79  1  0  0  0  0
 36 80  1  0  0  0  0
 37 38  1  0  0  0  0
 37 81  1  0  0  0  0
 38 39  2  0  0  0  0
 38 43  1  0  0  0  0
 39 40  1  0  0  0  0
 39 82  1  0  0  0  0
 40 41  2  0  0  0  0
 40 83  1  0  0  0  0
 41 42  1  0  0  0  0
 41 84  1  0  0  0  0
 42 43  2  0  0  0  0
 42 55  1  0  0  0  0
 43 44  1  0  0  0  0
 44 45  2  0  0  0  0
 44 46  1  0  0  0  0
 46 47  1  0  0  0  0
 46 55  1  0  0  0  0
 47 48  1  0  0  0  0
 47 53  1  0  0  0  0
 47 85  1  0  0  0  0
 48 49  1  0  0  0  0
 48 86  1  0  0  0  0
 48 87  1  0  0  0  0
 49 50  1  0  0  0  0
 49 88  1  0  0  0  0
 49 89  1  0  0  0  0
 50 51  2  0  0  0  0
 50 52  1  0  0  0  0
 52 53  1  0  0  0  0
 52 90  1  0  0  0  0
 53 54  2  0  0  0  0
 55 56  2  0  0  0  0
M  END
$$$$
protac3895RUN2
  chem.cr 07102519423D
protac3895RUN2
 90 96  0  0  0  0  0  0  0  0999 V2000
    2.5563    0.7755    0.9312 O   0  0  0  0  0  0  0  0  0  0  0  0
    2.5648   -0.0808    0.0582 C   0  0  0  0  0  0  0  0  0  0  0  0
    3.5744   -0.0804   -1.0626 C   0  0  0  0  0  0  0  0  0  0  0  0
    4.8338   -0.7960   -0.7970 N   0  0  0  0  0  0  0  0  0  0  0  0
    4.9885   -1.7612    0.2108 C   0  0  0  0  0  0  0  0  0  0  0  0
    6.0574   -2.5478   -0.0497 C   0  0  0  0  0  0  0  0  0  0  0  0
    6.6134   -3.4691    0.7956 C   0  0  0  0  0  0  0  0  0  0  0  0
    7.8338   -4.0664    0.7976 C   0  0  0  0  0  0  0  0  0  0  0  0
    8.9257   -3.7470    0.0075 C   0  0  0  0  0  0  0  0  0  0  0  0
    9.3876   -2.4149    0.0031 C   0  0  0  0  0  0  0  0  0  0  0  0
   10.5084   -2.0461   -0.7576 C   0  0  0  0  0  0  0  0  0  0  0  0
   11.1883   -3.0112   -1.5142 C   0  0  0  0  0  0  0  0  0  0  0  0
   12.5889   -2.5474   -2.4688 Cl  0  0  0  0  0  0  0  0  0  0  0  0
   10.7519   -4.3459   -1.5064 C   0  0  0  0  0  0  0  0  0  0  0  0
    9.6306   -4.7204   -0.7438 C   0  0  0  0  0  0  0  0  0  0  0  0
    9.0893   -6.4002   -0.8126 Cl  0  0  0  0  0  0  0  0  0  0  0  0
    7.9711   -4.8697    1.8591 C   0  0  0  0  0  0  0  0  0  0  0  0
    8.9129   -5.4985    2.3233 O   0  0  0  0  0  0  0  0  0  0  0  0
    6.7887   -4.8589    2.5764 N   0  0  0  0  0  0  0  0  0  0  0  0
    6.0001   -3.9215    1.9161 C   0  0  0  0  0  0  0  0  0  0  0  0
    4.9117   -3.6867    2.4271 O   0  0  0  0  0  0  0  0  0  0  0  0
    6.4873   -2.1734   -1.3342 C   0  0  0  0  0  0  0  0  0  0  0  0
    7.2555   -2.8618   -2.2942 C   0  0  0  0  0  0  0  0  0  0  0  0
    7.4358   -2.2986   -3.5769 C   0  0  0  0  0  0  0  0  0  0  0  0
    6.7851   -1.0985   -3.9362 C   0  0  0  0  0  0  0  0  0  0  0  0
    5.9021   -0.4847   -3.0308 C   0  0  0  0  0  0  0  0  0  0  0  0
    5.7670   -1.0578   -1.7593 C   0  0  0  0  0  0  0  0  0  0  0  0
    1.3539   -0.7204   -0.2407 N   0  0  0  0  0  0  0  0  0  0  0  0
    0.0987    0.0397   -0.3355 C   0  0  0  0  0  0  0  0  0  0  0  0
   -0.0510    0.6848   -1.7355 C   0  0  0  0  0  0  0  0  0  0  0  0
   -0.6423    1.9839   -1.6016 O   0  0  0  0  0  0  0  0  0  0  0  0
    0.2286    3.0203   -1.1084 C   0  0  0  0  0  0  0  0  0  0  0  0
   -0.5898    4.3187   -0.9370 C   0  0  0  0  0  0  0  0  0  0  0  0
   -1.3022    4.2922    0.3149 O   0  0  0  0  0  0  0  0  0  0  0  0
   -2.4542    3.4401    0.3702 C   0  0  0  0  0  0  0  0  0  0  0  0
   -3.1058    3.6381    1.7477 C   0  0  0  0  0  0  0  0  0  0  0  0
   -4.4537    3.0460    1.7607 N   0  0  0  0  0  0  0  0  0  0  0  0
   -5.5965    3.6367    1.2291 C   0  0  0  0  0  0  0  0  0  0  0  0
   -5.5945    4.9192    0.6252 C   0  0  0  0  0  0  0  0  0  0  0  0
   -6.7810    5.4785    0.0919 C   0  0  0  0  0  0  0  0  0  0  0  0
   -7.9984    4.7725    0.1540 C   0  0  0  0  0  0  0  0  0  0  0  0
   -7.9915    3.5101    0.7570 C   0  0  0  0  0  0  0  0  0  0  0  0
   -6.8194    2.9535    1.2738 C   0  0  0  0  0  0  0  0  0  0  0  0
   -7.1220    1.7012    1.7570 C   0  0  0  0  0  0  0  0  0  0  0  0
   -6.3443    0.7903    2.0198 O   0  0  0  0  0  0  0  0  0  0  0  0
   -8.4752    1.4559    1.5060 N   0  0  0  0  0  0  0  0  0  0  0  0
   -9.1948    0.2034    1.8104 C   0  0  0  0  0  0  0  0  0  0  0  0
   -9.4487   -0.5917    0.5119 C   0  0  0  0  0  0  0  0  0  0  0  0
  -10.2778   -1.8551    0.8208 C   0  0  0  0  0  0  0  0  0  0  0  0
  -11.5488   -1.5210    1.5685 C   0  0  0  0  0  0  0  0  0  0  0  0
  -12.5407   -2.2331    1.5504 O   0  0  0  0  0  0  0  0  0  0  0  0
  -11.5334   -0.4719    2.4955 N   0  0  0  0  0  0  0  0  0  0  0  0
  -10.4781    0.4474    2.5997 C   0  0  0  0  0  0  0  0  0  0  0  0
  -10.5637    1.2496    3.5199 O   0  0  0  0  0  0  0  0  0  0  0  0
   -9.0181    2.6086    0.9228 C   0  0  0  0  0  0  0  0  0  0  0  0
  -10.1114    2.6119    0.3677 O   0  0  0  0  0  0  0  0  0  0  0  0
    3.1255   -0.5087   -1.9663 H   0  0  0  0  0  0  0  0  0  0  0  0
    3.8287    0.9626   -1.2844 H   0  0  0  0  0  0  0  0  0  0  0  0
    4.3717   -1.6988    1.1041 H   0  0  0  0  0  0  0  0  0  0  0  0
    8.8656   -1.6635    0.5897 H   0  0  0  0  0  0  0  0  0  0  0  0
   10.8495   -1.0143   -0.7548 H   0  0  0  0  0  0  0  0  0  0  0  0
   11.2810   -5.0914   -2.0931 H   0  0  0  0  0  0  0  0  0  0  0  0
    6.7351   -5.0295    3.5678 H   0  0  0  0  0  0  0  0  0  0  0  0
    7.6633   -3.8404   -2.0943 H   0  0  0  0  0  0  0  0  0  0  0  0
    8.0583   -2.8138   -4.3039 H   0  0  0  0  0  0  0  0  0  0  0  0
    6.9155   -0.6834   -4.9318 H   0  0  0  0  0  0  0  0  0  0  0  0
    5.3247    0.3873   -3.3209 H   0  0  0  0  0  0  0  0  0  0  0  0
    1.3968   -1.6364   -0.6707 H   0  0  0  0  0  0  0  0  0  0  0  0
    0.0811    0.8035    0.4541 H   0  0  0  0  0  0  0  0  0  0  0  0
   -0.7509   -0.6290   -0.1460 H   0  0  0  0  0  0  0  0  0  0  0  0
   -0.6804    0.0422   -2.3649 H   0  0  0  0  0  0  0  0  0  0  0  0
    0.9271    0.7696   -2.2262 H   0  0  0  0  0  0  0  0  0  0  0  0
    1.0363    3.2013   -1.8288 H   0  0  0  0  0  0  0  0  0  0  0  0
    0.6851    2.7573   -0.1460 H   0  0  0  0  0  0  0  0  0  0  0  0
   -1.2733    4.4487   -1.7861 H   0  0  0  0  0  0  0  0  0  0  0  0
    0.1047    5.1682   -0.9347 H   0  0  0  0  0  0  0  0  0  0  0  0
   -3.1630    3.7069   -0.4256 H   0  0  0  0  0  0  0  0  0  0  0  0
   -2.1830    2.3836    0.2551 H   0  0  0  0  0  0  0  0  0  0  0  0
   -2.4794    3.1600    2.5122 H   0  0  0  0  0  0  0  0  0  0  0  0
   -3.1501    4.7076    1.9898 H   0  0  0  0  0  0  0  0  0  0  0  0
   -4.5703    2.1086    2.1333 H   0  0  0  0  0  0  0  0  0  0  0  0
   -4.6755    5.4914    0.5540 H   0  0  0  0  0  0  0  0  0  0  0  0
   -6.7527    6.4602   -0.3735 H   0  0  0  0  0  0  0  0  0  0  0  0
   -8.9152    5.1878   -0.2569 H   0  0  0  0  0  0  0  0  0  0  0  0
   -8.5486   -0.4018    2.4598 H   0  0  0  0  0  0  0  0  0  0  0  0
   -8.4917   -0.8538    0.0410 H   0  0  0  0  0  0  0  0  0  0  0  0
   -9.9977    0.0379   -0.2024 H   0  0  0  0  0  0  0  0  0  0  0  0
  -10.5325   -2.3690   -0.1142 H   0  0  0  0  0  0  0  0  0  0  0  0
   -9.6886   -2.5616    1.4186 H   0  0  0  0  0  0  0  0  0  0  0  0
  -12.3524   -0.3250    3.0670 H   0  0  0  0  0  0  0  0  0  0  0  0
  1  2  2  0  0  0  0
  2  3  1  0  0  0  0
  2 28  1  0  0  0  0
  3  4  1  0  0  0  0
  3 57  1  0  0  0  0
  3 58  1  0  0  0  0
  4  5  1  0  0  0  0
  4 27  1  0  0  0  0
  5  6  2  0  0  0  0
  5 59  1  0  0  0  0
  6  7  1  0  0  0  0
  6 22  1  0  0  0  0
  7  8  2  0  0  0  0
  7 20  1  0  0  0  0
  8  9  1  0  0  0  0
  8 17  1  0  0  0  0
  9 10  2  0  0  0  0
  9 15  1  0  0  0  0
 10 11  1  0  0  0  0
 10 60  1  0  0  0  0
 11 12  2  0  0  0  0
 11 61  1  0  0  0  0
 12 13  1  0  0  0  0
 12 14  1  0  0  0  0
 14 15  2  0  0  0  0
 14 62  1  0  0  0  0
 15 16  1  0  0  0  0
 17 18  2  0  0  0  0
 17 19  1  0  0  0  0
 19 20  1  0  0  0  0
 19 63  1  0  0  0  0
 20 21  2  0  0  0  0
 22 23  2  0  0  0  0
 22 27  1  0  0  0  0
 23 24  1  0  0  0  0
 23 64  1  0  0  0  0
 24 25  2  0  0  0  0
 24 65  1  0  0  0  0
 25 26  1  0  0  0  0
 25 66  1  0  0  0  0
 26 27  2  0  0  0  0
 26 67  1  0  0  0  0
 28 29  1  0  0  0  0
 28 68  1  0  0  0  0
 29 30  1  0  0  0  0
 29 69  1  0  0  0  0
 29 70  1  0  0  0  0
 30 31  1  0  0  0  0
 30 71  1  0  0  0  0
 30 72  1  0  0  0  0
 31 32  1  0  0  0  0
 32 33  1  0  0  0  0
 32 73  1  0  0  0  0
 32 74  1  0  0  0  0
 33 34  1  0  0  0  0
 33 75  1  0  0  0  0
 33 76  1  0  0  0  0
 34 35  1  0  0  0  0
 35 36  1  0  0  0  0
 35 77  1  0  0  0  0
 35 78  1  0  0  0  0
 36 37  1  0  0  0  0
 36 79  1  0  0  0  0
 36 80  1  0  0  0  0
 37 38  1  0  0  0  0
 37 81  1  0  0  0  0
 38 39  2  0  0  0  0
 38 43  1  0  0  0  0
 39 40  1  0  0  0  0
 39 82  1  0  0  0  0
 40 41  2  0  0  0  0
 40 83  1  0  0  0  0
 41 42  1  0  0  0  0
 41 84  1  0  0  0  0
 42 43  2  0  0  0  0
 42 55  1  0  0  0  0
 43 44  1  0  0  0  0
 44 45  2  0  0  0  0
 44 46  1  0  0  0  0
 46 47  1  0  0  0  0
 46 55  1  0  0  0  0
 47 48  1  0  0  0  0
 47 53  1  0  0  0  0
 47 85  1  0  0  0  0
 48 49  1  0  0  0  0
 48 86  1  0  0  0  0
 48 87  1  0  0  0  0
 49 50  1  0  0  0  0
 49 88  1  0  0  0  0
 49 89  1  0  0  0  0
 50 51  2  0  0  0  0
 50 52  1  0  0  0  0
 52 53  1  0  0  0  0
 52 90  1  0  0  0  0
 53 54  2  0  0  0  0
 55 56  2  0  0  0  0
M  END
$$$$
protac3895RUN2
  chem.cr 07102519423D
protac3895RUN2
 90 96  0  0  0  0  0  0  0  0999 V2000
    4.2081   -0.2109   -0.4413 O   0  0  0  0  0  0  0  0  0  0  0  0
    4.6979    0.8960   -0.6224 C   0  0  0  0  0  0  0  0  0  0  0  0
    6.0936    1.2816   -0.1706 C   0  0  0  0  0  0  0  0  0  0  0  0
    7.1017    0.2337   -0.4288 N   0  0  0  0  0  0  0  0  0  0  0  0
    7.0103   -0.9728    0.2777 C   0  0  0  0  0  0  0  0  0  0  0  0
    7.4147   -2.0247   -0.4683 C   0  0  0  0  0  0  0  0  0  0  0  0
    7.5533   -3.3162   -0.0221 C   0  0  0  0  0  0  0  0  0  0  0  0
    8.1677   -4.4091   -0.5498 C   0  0  0  0  0  0  0  0  0  0  0  0
    8.9735   -4.4798   -1.6725 C   0  0  0  0  0  0  0  0  0  0  0  0
   10.1276   -3.6737   -1.7376 C   0  0  0  0  0  0  0  0  0  0  0  0
   10.9962   -3.7570   -2.8384 C   0  0  0  0  0  0  0  0  0  0  0  0
   10.7234   -4.6549   -3.8813 C   0  0  0  0  0  0  0  0  0  0  0  0
   11.8138   -4.7552   -5.2585 Cl  0  0  0  0  0  0  0  0  0  0  0  0
    9.5836   -5.4727   -3.8249 C   0  0  0  0  0  0  0  0  0  0  0  0
    8.7114   -5.3936   -2.7243 C   0  0  0  0  0  0  0  0  0  0  0  0
    7.2637   -6.4042   -2.7278 Cl  0  0  0  0  0  0  0  0  0  0  0  0
    8.0844   -5.4562    0.2803 C   0  0  0  0  0  0  0  0  0  0  0  0
    8.5660   -6.5808    0.2677 O   0  0  0  0  0  0  0  0  0  0  0  0
    7.3490   -5.0848    1.3881 N   0  0  0  0  0  0  0  0  0  0  0  0
    7.0889   -3.7350    1.1845 C   0  0  0  0  0  0  0  0  0  0  0  0
    6.4931   -3.1777    2.0982 O   0  0  0  0  0  0  0  0  0  0  0  0
    7.6678   -1.4819   -1.7412 C   0  0  0  0  0  0  0  0  0  0  0  0
    7.7564   -2.0750   -3.0165 C   0  0  0  0  0  0  0  0  0  0  0  0
    7.9306   -1.2631   -4.1564 C   0  0  0  0  0  0  0  0  0  0  0  0
    7.9202    0.1427   -4.0501 C   0  0  0  0  0  0  0  0  0  0  0  0
    7.6746    0.7458   -2.8051 C   0  0  0  0  0  0  0  0  0  0  0  0
    7.5318   -0.0892   -1.6877 C   0  0  0  0  0  0  0  0  0  0  0  0
    3.8527    1.9340   -1.0478 N   0  0  0  0  0  0  0  0  0  0  0  0
    2.5129    1.6764   -1.6036 C   0  0  0  0  0  0  0  0  0  0  0  0
    1.4683    1.4239   -0.4962 C   0  0  0  0  0  0  0  0  0  0  0  0
    0.2124    1.0770   -1.0972 O   0  0  0  0  0  0  0  0  0  0  0  0
   -0.5004    2.1363   -1.7543 C   0  0  0  0  0  0  0  0  0  0  0  0
   -1.9538    1.6659   -1.9265 C   0  0  0  0  0  0  0  0  0  0  0  0
   -2.5057    1.5434   -0.6112 O   0  0  0  0  0  0  0  0  0  0  0  0
   -3.8922    1.2104   -0.5510 C   0  0  0  0  0  0  0  0  0  0  0  0
   -4.1941    0.9056    0.9248 C   0  0  0  0  0  0  0  0  0  0  0  0
   -5.6295    1.0484    1.1990 N   0  0  0  0  0  0  0  0  0  0  0  0
   -6.2657    2.2480    1.4979 C   0  0  0  0  0  0  0  0  0  0  0  0
   -5.6095    3.5030    1.4513 C   0  0  0  0  0  0  0  0  0  0  0  0
   -6.2951    4.6983    1.7785 C   0  0  0  0  0  0  0  0  0  0  0  0
   -7.6522    4.6660    2.1583 C   0  0  0  0  0  0  0  0  0  0  0  0
   -8.2914    3.4213    2.1935 C   0  0  0  0  0  0  0  0  0  0  0  0
   -7.6153    2.2455    1.8692 C   0  0  0  0  0  0  0  0  0  0  0  0
   -8.4999    1.2022    2.0085 C   0  0  0  0  0  0  0  0  0  0  0  0
   -8.3403    0.0196    1.7258 O   0  0  0  0  0  0  0  0  0  0  0  0
   -9.7415    1.7118    2.3998 N   0  0  0  0  0  0  0  0  0  0  0  0
  -10.7815    0.9138    3.0780 C   0  0  0  0  0  0  0  0  0  0  0  0
  -12.1097    0.9882    2.2956 C   0  0  0  0  0  0  0  0  0  0  0  0
  -13.2087    0.2247    3.0648 C   0  0  0  0  0  0  0  0  0  0  0  0
  -13.3392    0.7196    4.4874 C   0  0  0  0  0  0  0  0  0  0  0  0
  -14.3686    0.6289    5.1390 O   0  0  0  0  0  0  0  0  0  0  0  0
  -12.1837    1.1071    5.1745 N   0  0  0  0  0  0  0  0  0  0  0  0
  -10.9468    1.3060    4.5447 C   0  0  0  0  0  0  0  0  0  0  0  0
  -10.0091    1.5601    5.2896 O   0  0  0  0  0  0  0  0  0  0  0  0
   -9.5856    3.0990    2.5313 C   0  0  0  0  0  0  0  0  0  0  0  0
  -10.5388    3.8571    2.6749 O   0  0  0  0  0  0  0  0  0  0  0  0
    6.4099    2.2006   -0.6751 H   0  0  0  0  0  0  0  0  0  0  0  0
    6.0690    1.4825    0.9067 H   0  0  0  0  0  0  0  0  0  0  0  0
    6.6943   -0.9338    1.3159 H   0  0  0  0  0  0  0  0  0  0  0  0
   10.3457   -2.9794   -0.9304 H   0  0  0  0  0  0  0  0  0  0  0  0
   11.8820   -3.1303   -2.8785 H   0  0  0  0  0  0  0  0  0  0  0  0
    9.3747   -6.1683   -4.6326 H   0  0  0  0  0  0  0  0  0  0  0  0
    7.4465   -5.5064    2.2978 H   0  0  0  0  0  0  0  0  0  0  0  0
    7.6313   -3.1347   -3.1574 H   0  0  0  0  0  0  0  0  0  0  0  0
    8.0355   -1.7287   -5.1320 H   0  0  0  0  0  0  0  0  0  0  0  0
    8.0347    0.7575   -4.9392 H   0  0  0  0  0  0  0  0  0  0  0  0
    7.5757    1.8224   -2.7235 H   0  0  0  0  0  0  0  0  0  0  0  0
    4.1974    2.8842   -1.0217 H   0  0  0  0  0  0  0  0  0  0  0  0
    2.5610    0.7885   -2.2492 H   0  0  0  0  0  0  0  0  0  0  0  0
    2.2065    2.5283   -2.2218 H   0  0  0  0  0  0  0  0  0  0  0  0
    1.3637    2.3060    0.1489 H   0  0  0  0  0  0  0  0  0  0  0  0
    1.8079    0.5905    0.1334 H   0  0  0  0  0  0  0  0  0  0  0  0
   -0.0632    2.3541   -2.7367 H   0  0  0  0  0  0  0  0  0  0  0  0
   -0.4909    3.0538   -1.1509 H   0  0  0  0  0  0  0  0  0  0  0  0
   -1.9721    0.7014   -2.4508 H   0  0  0  0  0  0  0  0  0  0  0  0
   -2.5135    2.4030   -2.5175 H   0  0  0  0  0  0  0  0  0  0  0  0
   -4.5001    2.0569   -0.8985 H   0  0  0  0  0  0  0  0  0  0  0  0
   -4.1266    0.3321   -1.1668 H   0  0  0  0  0  0  0  0  0  0  0  0
   -3.8640   -0.1159    1.1571 H   0  0  0  0  0  0  0  0  0  0  0  0
   -3.6186    1.5824    1.5697 H   0  0  0  0  0  0  0  0  0  0  0  0
   -6.2054    0.2125    1.2368 H   0  0  0  0  0  0  0  0  0  0  0  0
   -4.5651    3.5657    1.1630 H   0  0  0  0  0  0  0  0  0  0  0  0
   -5.7685    5.6487    1.7401 H   0  0  0  0  0  0  0  0  0  0  0  0
   -8.1900    5.5737    2.4220 H   0  0  0  0  0  0  0  0  0  0  0  0
  -10.4518   -0.1337    3.0780 H   0  0  0  0  0  0  0  0  0  0  0  0
  -11.9755    0.5721    1.2882 H   0  0  0  0  0  0  0  0  0  0  0  0
  -12.4069    2.0395    2.1719 H   0  0  0  0  0  0  0  0  0  0  0  0
  -14.1715    0.3347    2.5511 H   0  0  0  0  0  0  0  0  0  0  0  0
  -12.9821   -0.8485    3.0830 H   0  0  0  0  0  0  0  0  0  0  0  0
  -12.2586    1.3225    6.1577 H   0  0  0  0  0  0  0  0  0  0  0  0
  1  2  2  0  0  0  0
  2  3  1  0  0  0  0
  2 28  1  0  0  0  0
  3  4  1  0  0  0  0
  3 57  1  0  0  0  0
  3 58  1  0  0  0  0
  4  5  1  0  0  0  0
  4 27  1  0  0  0  0
  5  6  2  0  0  0  0
  5 59  1  0  0  0  0
  6  7  1  0  0  0  0
  6 22  1  0  0  0  0
  7  8  2  0  0  0  0
  7 20  1  0  0  0  0
  8  9  1  0  0  0  0
  8 17  1  0  0  0  0
  9 10  2  0  0  0  0
  9 15  1  0  0  0  0
 10 11  1  0  0  0  0
 10 60  1  0  0  0  0
 11 12  2  0  0  0  0
 11 61  1  0  0  0  0
 12 13  1  0  0  0  0
 12 14  1  0  0  0  0
 14 15  2  0  0  0  0
 14 62  1  0  0  0  0
 15 16  1  0  0  0  0
 17 18  2  0  0  0  0
 17 19  1  0  0  0  0
 19 20  1  0  0  0  0
 19 63  1  0  0  0  0
 20 21  2  0  0  0  0
 22 23  2  0  0  0  0
 22 27  1  0  0  0  0
 23 24  1  0  0  0  0
 23 64  1  0  0  0  0
 24 25  2  0  0  0  0
 24 65  1  0  0  0  0
 25 26  1  0  0  0  0
 25 66  1  0  0  0  0
 26 27  2  0  0  0  0
 26 67  1  0  0  0  0
 28 29  1  0  0  0  0
 28 68  1  0  0  0  0
 29 30  1  0  0  0  0
 29 69  1  0  0  0  0
 29 70  1  0  0  0  0
 30 31  1  0  0  0  0
 30 71  1  0  0  0  0
 30 72  1  0  0  0  0
 31 32  1  0  0  0  0
 32 33  1  0  0  0  0
 32 73  1  0  0  0  0
 32 74  1  0  0  0  0
 33 34  1  0  0  0  0
 33 75  1  0  0  0  0
 33 76  1  0  0  0  0
 34 35  1  0  0  0  0
 35 36  1  0  0  0  0
 35 77  1  0  0  0  0
 35 78  1  0  0  0  0
 36 37  1  0  0  0  0
 36 79  1  0  0  0  0
 36 80  1  0  0  0  0
 37 38  1  0  0  0  0
 37 81  1  0  0  0  0
 38 39  2  0  0  0  0
 38 43  1  0  0  0  0
 39 40  1  0  0  0  0
 39 82  1  0  0  0  0
 40 41  2  0  0  0  0
 40 83  1  0  0  0  0
 41 42  1  0  0  0  0
 41 84  1  0  0  0  0
 42 43  2  0  0  0  0
 42 55  1  0  0  0  0
 43 44  1  0  0  0  0
 44 45  2  0  0  0  0
 44 46  1  0  0  0  0
 46 47  1  0  0  0  0
 46 55  1  0  0  0  0
 47 48  1  0  0  0  0
 47 53  1  0  0  0  0
 47 85  1  0  0  0  0
 48 49  1  0  0  0  0
 48 86  1  0  0  0  0
 48 87  1  0  0  0  0
 49 50  1  0  0  0  0
 49 88  1  0  0  0  0
 49 89  1  0  0  0  0
 50 51  2  0  0  0  0
 50 52  1  0  0  0  0
 52 53  1  0  0  0  0
 52 90  1  0  0  0  0
 53 54  2  0  0  0  0
 55 56  2  0  0  0  0
M  END
$$$$
protac3895RUN2
  chem.cr 07102519423D
protac3895RUN2
 90 96  0  0  0  0  0  0  0  0999 V2000
    2.8717    2.2198    1.7283 O   0  0  0  0  0  0  0  0  0  0  0  0
    3.3943    1.8954    0.6712 C   0  0  0  0  0  0  0  0  0  0  0  0
    4.8903    1.8297    0.4726 C   0  0  0  0  0  0  0  0  0  0  0  0
    5.3550    0.6280   -0.2441 N   0  0  0  0  0  0  0  0  0  0  0  0
    5.4615   -0.6192    0.3905 C   0  0  0  0  0  0  0  0  0  0  0  0
    5.4883   -1.6111   -0.5266 C   0  0  0  0  0  0  0  0  0  0  0  0
    5.7954   -2.9219   -0.3013 C   0  0  0  0  0  0  0  0  0  0  0  0
    6.1817   -3.9100   -1.1497 C   0  0  0  0  0  0  0  0  0  0  0  0
    6.5214   -3.7741   -2.4900 C   0  0  0  0  0  0  0  0  0  0  0  0
    7.5013   -2.8257   -2.8497 C   0  0  0  0  0  0  0  0  0  0  0  0
    7.8780   -2.6532   -4.1918 C   0  0  0  0  0  0  0  0  0  0  0  0
    7.2866   -3.4402   -5.1892 C   0  0  0  0  0  0  0  0  0  0  0  0
    7.7465   -3.2094   -6.8709 Cl  0  0  0  0  0  0  0  0  0  0  0  0
    6.3280   -4.4051   -4.8463 C   0  0  0  0  0  0  0  0  0  0  0  0
    5.9482   -4.5822   -3.5035 C   0  0  0  0  0  0  0  0  0  0  0  0
    4.6966   -5.7691   -3.1389 Cl  0  0  0  0  0  0  0  0  0  0  0  0
    6.4478   -5.0381   -0.4808 C   0  0  0  0  0  0  0  0  0  0  0  0
    6.9309   -6.1151   -0.8044 O   0  0  0  0  0  0  0  0  0  0  0  0
    6.1813   -4.8280    0.8602 N   0  0  0  0  0  0  0  0  0  0  0  0
    5.8462   -3.4797    0.9346 C   0  0  0  0  0  0  0  0  0  0  0  0
    5.6466   -3.0384    2.0580 O   0  0  0  0  0  0  0  0  0  0  0  0
    5.1962   -0.9880   -1.7504 C   0  0  0  0  0  0  0  0  0  0  0  0
    4.6586   -1.5144   -2.9413 C   0  0  0  0  0  0  0  0  0  0  0  0
    4.3273   -0.6388   -3.9975 C   0  0  0  0  0  0  0  0  0  0  0  0
    4.4486    0.7574   -3.8424 C   0  0  0  0  0  0  0  0  0  0  0  0
    4.8518    1.2936   -2.6057 C   0  0  0  0  0  0  0  0  0  0  0  0
    5.1860    0.3948   -1.5823 C   0  0  0  0  0  0  0  0  0  0  0  0
    2.5883    1.7298   -0.4659 N   0  0  0  0  0  0  0  0  0  0  0  0
    1.1319    1.8925   -0.4317 C   0  0  0  0  0  0  0  0  0  0  0  0
    0.5277    2.0669   -1.8404 C   0  0  0  0  0  0  0  0  0  0  0  0
    0.7360    0.8731   -2.6181 O   0  0  0  0  0  0  0  0  0  0  0  0
   -0.3727   -0.0471   -2.7343 C   0  0  0  0  0  0  0  0  0  0  0  0
   -0.5135   -0.9105   -1.4612 C   0  0  0  0  0  0  0  0  0  0  0  0
   -1.2543   -0.1806   -0.4703 O   0  0  0  0  0  0  0  0  0  0  0  0
   -1.2878   -0.7956    0.8264 C   0  0  0  0  0  0  0  0  0  0  0  0
   -1.5968    0.3021    1.8643 C   0  0  0  0  0  0  0  0  0  0  0  0
   -3.0163    0.6898    1.8374 N   0  0  0  0  0  0  0  0  0  0  0  0
   -3.5399    1.8742    2.3502 C   0  0  0  0  0  0  0  0  0  0  0  0
   -2.7559    3.0324    2.5861 C   0  0  0  0  0  0  0  0  0  0  0  0
   -3.3400    4.2241    3.0816 C   0  0  0  0  0  0  0  0  0  0  0  0
   -4.7208    4.2882    3.3520 C   0  0  0  0  0  0  0  0  0  0  0  0
   -5.4834    3.1369    3.1339 C   0  0  0  0  0  0  0  0  0  0  0  0
   -4.9081    1.9615    2.6461 C   0  0  0  0  0  0  0  0  0  0  0  0
   -5.9063    1.0205    2.5447 C   0  0  0  0  0  0  0  0  0  0  0  0
   -5.8632   -0.0921    2.0300 O   0  0  0  0  0  0  0  0  0  0  0  0
   -7.1089    1.6120    2.9374 N   0  0  0  0  0  0  0  0  0  0  0  0
   -8.4113    0.9243    3.0441 C   0  0  0  0  0  0  0  0  0  0  0  0
   -9.1927    1.1073    1.7246 C   0  0  0  0  0  0  0  0  0  0  0  0
  -10.6429    0.6064    1.8893 C   0  0  0  0  0  0  0  0  0  0  0  0
  -11.3298    1.3111    3.0335 C   0  0  0  0  0  0  0  0  0  0  0  0
  -12.5337    1.5140    3.0775 O   0  0  0  0  0  0  0  0  0  0  0  0
  -10.5837    1.6045    4.1793 N   0  0  0  0  0  0  0  0  0  0  0  0
   -9.2047    1.3600    4.2785 C   0  0  0  0  0  0  0  0  0  0  0  0
   -8.7432    1.3585    5.4129 O   0  0  0  0  0  0  0  0  0  0  0  0
   -6.8328    2.9333    3.3155 C   0  0  0  0  0  0  0  0  0  0  0  0
   -7.7084    3.7925    3.3215 O   0  0  0  0  0  0  0  0  0  0  0  0
    5.2178    2.7198   -0.0763 H   0  0  0  0  0  0  0  0  0  0  0  0
    5.3718    1.8600    1.4554 H   0  0  0  0  0  0  0  0  0  0  0  0
    5.6400   -0.6517    1.4633 H   0  0  0  0  0  0  0  0  0  0  0  0
    7.9600   -2.2084   -2.0815 H   0  0  0  0  0  0  0  0  0  0  0  0
    8.6222   -1.9066   -4.4554 H   0  0  0  0  0  0  0  0  0  0  0  0
    5.8721   -5.0110   -5.6238 H   0  0  0  0  0  0  0  0  0  0  0  0
    6.6418   -5.3270    1.6060 H   0  0  0  0  0  0  0  0  0  0  0  0
    4.4396   -2.5672   -3.0433 H   0  0  0  0  0  0  0  0  0  0  0  0
    3.9375   -1.0466   -4.9247 H   0  0  0  0  0  0  0  0  0  0  0  0
    4.1674    1.4194   -4.6566 H   0  0  0  0  0  0  0  0  0  0  0  0
    4.8587    2.3668   -2.4430 H   0  0  0  0  0  0  0  0  0  0  0  0
    3.0031    1.2997   -1.2872 H   0  0  0  0  0  0  0  0  0  0  0  0
    0.8828    2.7730    0.1741 H   0  0  0  0  0  0  0  0  0  0  0  0
    0.7109    1.0172    0.0665 H   0  0  0  0  0  0  0  0  0  0  0  0
    1.0239    2.9168   -2.3269 H   0  0  0  0  0  0  0  0  0  0  0  0
   -0.5406    2.3051   -1.7600 H   0  0  0  0  0  0  0  0  0  0  0  0
   -0.1841   -0.7247   -3.5770 H   0  0  0  0  0  0  0  0  0  0  0  0
   -1.3124    0.4797   -2.9448 H   0  0  0  0  0  0  0  0  0  0  0  0
    0.4894   -1.1685   -1.0968 H   0  0  0  0  0  0  0  0  0  0  0  0
   -1.0360   -1.8438   -1.7101 H   0  0  0  0  0  0  0  0  0  0  0  0
   -2.0363   -1.5986    0.8683 H   0  0  0  0  0  0  0  0  0  0  0  0
   -0.3064   -1.2272    1.0664 H   0  0  0  0  0  0  0  0  0  0  0  0
   -1.3433   -0.0707    2.8646 H   0  0  0  0  0  0  0  0  0  0  0  0
   -0.9517    1.1625    1.6567 H   0  0  0  0  0  0  0  0  0  0  0  0
   -3.6996   -0.0252    1.6084 H   0  0  0  0  0  0  0  0  0  0  0  0
   -1.6932    3.0303    2.3794 H   0  0  0  0  0  0  0  0  0  0  0  0
   -2.7206    5.1028    3.2515 H   0  0  0  0  0  0  0  0  0  0  0  0
   -5.1856    5.1960    3.7277 H   0  0  0  0  0  0  0  0  0  0  0  0
   -8.2088   -0.1465    3.1771 H   0  0  0  0  0  0  0  0  0  0  0  0
   -8.6817    0.5742    0.9109 H   0  0  0  0  0  0  0  0  0  0  0  0
   -9.2043    2.1749    1.4586 H   0  0  0  0  0  0  0  0  0  0  0  0
  -11.2053    0.7824    0.9640 H   0  0  0  0  0  0  0  0  0  0  0  0
  -10.6572   -0.4759    2.0707 H   0  0  0  0  0  0  0  0  0  0  0  0
  -11.0643    1.9748    4.9841 H   0  0  0  0  0  0  0  0  0  0  0  0
  1  2  2  0  0  0  0
  2  3  1  0  0  0  0
  2 28  1  0  0  0  0
  3  4  1  0  0  0  0
  3 57  1  0  0  0  0
  3 58  1  0  0  0  0
  4  5  1  0  0  0  0
  4 27  1  0  0  0  0
  5  6  2  0  0  0  0
  5 59  1  0  0  0  0
  6  7  1  0  0  0  0
  6 22  1  0  0  0  0
  7  8  2  0  0  0  0
  7 20  1  0  0  0  0
  8  9  1  0  0  0  0
  8 17  1  0  0  0  0
  9 10  2  0  0  0  0
  9 15  1  0  0  0  0
 10 11  1  0  0  0  0
 10 60  1  0  0  0  0
 11 12  2  0  0  0  0
 11 61  1  0  0  0  0
 12 13  1  0  0  0  0
 12 14  1  0  0  0  0
 14 15  2  0  0  0  0
 14 62  1  0  0  0  0
 15 16  1  0  0  0  0
 17 18  2  0  0  0  0
 17 19  1  0  0  0  0
 19 20  1  0  0  0  0
 19 63  1  0  0  0  0
 20 21  2  0  0  0  0
 22 23  2  0  0  0  0
 22 27  1  0  0  0  0
 23 24  1  0  0  0  0
 23 64  1  0  0  0  0
 24 25  2  0  0  0  0
 24 65  1  0  0  0  0
 25 26  1  0  0  0  0
 25 66  1  0  0  0  0
 26 27  2  0  0  0  0
 26 67  1  0  0  0  0
 28 29  1  0  0  0  0
 28 68  1  0  0  0  0
 29 30  1  0  0  0  0
 29 69  1  0  0  0  0
 29 70  1  0  0  0  0
 30 31  1  0  0  0  0
 30 71  1  0  0  0  0
 30 72  1  0  0  0  0
 31 32  1  0  0  0  0
 32 33  1  0  0  0  0
 32 73  1  0  0  0  0
 32 74  1  0  0  0  0
 33 34  1  0  0  0  0
 33 75  1  0  0  0  0
 33 76  1  0  0  0  0
 34 35  1  0  0  0  0
 35 36  1  0  0  0  0
 35 77  1  0  0  0  0
 35 78  1  0  0  0  0
 36 37  1  0  0  0  0
 36 79  1  0  0  0  0
 36 80  1  0  0  0  0
 37 38  1  0  0  0  0
 37 81  1  0  0  0  0
 38 39  2  0  0  0  0
 38 43  1  0  0  0  0
 39 40  1  0  0  0  0
 39 82  1  0  0  0  0
 40 41  2  0  0  0  0
 40 83  1  0  0  0  0
 41 42  1  0  0  0  0
 41 84  1  0  0  0  0
 42 43  2  0  0  0  0
 42 55  1  0  0  0  0
 43 44  1  0  0  0  0
 44 45  2  0  0  0  0
 44 46  1  0  0  0  0
 46 47  1  0  0  0  0
 46 55  1  0  0  0  0
 47 48  1  0  0  0  0
 47 53  1  0  0  0  0
 47 85  1  0  0  0  0
 48 49  1  0  0  0  0
 48 86  1  0  0  0  0
 48 87  1  0  0  0  0
 49 50  1  0  0  0  0
 49 88  1  0  0  0  0
 49 89  1  0  0  0  0
 50 51  2  0  0  0  0
 50 52  1  0  0  0  0
 52 53  1  0  0  0  0
 52 90  1  0  0  0  0
 53 54  2  0  0  0  0
 55 56  2  0  0  0  0
M  END
$$$$
protac3895RUN2
  chem.cr 07102519423D
protac3895RUN2
 90 96  0  0  0  0  0  0  0  0999 V2000
    1.6196    3.2577    1.3049 O   0  0  0  0  0  0  0  0  0  0  0  0
    1.9103    2.8298    0.1954 C   0  0  0  0  0  0  0  0  0  0  0  0
    3.2944    2.9447   -0.3922 C   0  0  0  0  0  0  0  0  0  0  0  0
    3.8165    1.6909   -0.9665 N   0  0  0  0  0  0  0  0  0  0  0  0
    3.8901    0.5091   -0.2172 C   0  0  0  0  0  0  0  0  0  0  0  0
    4.0181   -0.5623   -1.0313 C   0  0  0  0  0  0  0  0  0  0  0  0
    4.3086   -1.8431   -0.6356 C   0  0  0  0  0  0  0  0  0  0  0  0
    4.7604   -2.9224   -1.3259 C   0  0  0  0  0  0  0  0  0  0  0  0
    5.1997   -2.9706   -2.6390 C   0  0  0  0  0  0  0  0  0  0  0  0
    6.2311   -2.1014   -3.0531 C   0  0  0  0  0  0  0  0  0  0  0  0
    6.7136   -2.1371   -4.3716 C   0  0  0  0  0  0  0  0  0  0  0  0
    6.1828   -3.0591   -5.2875 C   0  0  0  0  0  0  0  0  0  0  0  0
    6.7789   -3.0990   -6.9421 Cl  0  0  0  0  0  0  0  0  0  0  0  0
    5.1735   -3.9467   -4.8846 C   0  0  0  0  0  0  0  0  0  0  0  0
    4.6813   -3.9089   -3.5684 C   0  0  0  0  0  0  0  0  0  0  0  0
    3.3608   -4.9979   -3.1398 Cl  0  0  0  0  0  0  0  0  0  0  0  0
    4.9655   -3.9625   -0.5058 C   0  0  0  0  0  0  0  0  0  0  0  0
    5.4631   -5.0692   -0.6593 O   0  0  0  0  0  0  0  0  0  0  0  0
    4.5909   -3.5990    0.7741 N   0  0  0  0  0  0  0  0  0  0  0  0
    4.2493   -2.2552    0.6540 C   0  0  0  0  0  0  0  0  0  0  0  0
    3.9403   -1.6970    1.7010 O   0  0  0  0  0  0  0  0  0  0  0  0
    3.8508   -0.0572   -2.3320 C   0  0  0  0  0  0  0  0  0  0  0  0
    3.4947   -0.6891   -3.5394 C   0  0  0  0  0  0  0  0  0  0  0  0
    3.3044    0.0862   -4.7035 C   0  0  0  0  0  0  0  0  0  0  0  0
    3.3772    1.4936   -4.6527 C   0  0  0  0  0  0  0  0  0  0  0  0
    3.5794    2.1393   -3.4204 C   0  0  0  0  0  0  0  0  0  0  0  0
    3.7844    1.3393   -2.2878 C   0  0  0  0  0  0  0  0  0  0  0  0
    0.8992    2.3760   -0.6652 N   0  0  0  0  0  0  0  0  0  0  0  0
   -0.5355    2.5846   -0.4123 C   0  0  0  0  0  0  0  0  0  0  0  0
   -1.2506    1.2695   -0.0715 C   0  0  0  0  0  0  0  0  0  0  0  0
   -1.3915    0.5194   -1.2906 O   0  0  0  0  0  0  0  0  0  0  0  0
   -2.2156   -0.6613   -1.2167 C   0  0  0  0  0  0  0  0  0  0  0  0
   -1.4202   -1.8448   -0.6184 C   0  0  0  0  0  0  0  0  0  0  0  0
   -1.2626   -1.6037    0.7800 O   0  0  0  0  0  0  0  0  0  0  0  0
   -0.6339   -2.6384    1.5414 C   0  0  0  0  0  0  0  0  0  0  0  0
   -0.2876   -2.0344    2.9199 C   0  0  0  0  0  0  0  0  0  0  0  0
   -1.4486   -1.3081    3.4690 N   0  0  0  0  0  0  0  0  0  0  0  0
   -1.5295    0.0805    3.4530 C   0  0  0  0  0  0  0  0  0  0  0  0
   -0.4257    0.9162    3.7443 C   0  0  0  0  0  0  0  0  0  0  0  0
   -0.5363    2.3263    3.6752 C   0  0  0  0  0  0  0  0  0  0  0  0
   -1.7568    2.9323    3.3170 C   0  0  0  0  0  0  0  0  0  0  0  0
   -2.8462    2.0975    3.0411 C   0  0  0  0  0  0  0  0  0  0  0  0
   -2.7329    0.7098    3.1070 C   0  0  0  0  0  0  0  0  0  0  0  0
   -3.9394    0.1756    2.7231 C   0  0  0  0  0  0  0  0  0  0  0  0
   -4.2445   -1.0033    2.5703 O   0  0  0  0  0  0  0  0  0  0  0  0
   -4.8109    1.2162    2.3840 N   0  0  0  0  0  0  0  0  0  0  0  0
   -6.2811    1.0644    2.3414 C   0  0  0  0  0  0  0  0  0  0  0  0
   -6.8796    1.6897    1.0630 C   0  0  0  0  0  0  0  0  0  0  0  0
   -8.4128    1.5000    1.0618 C   0  0  0  0  0  0  0  0  0  0  0  0
   -9.0505    1.9891    2.3443 C   0  0  0  0  0  0  0  0  0  0  0  0
  -10.2293    2.2995    2.4269 O   0  0  0  0  0  0  0  0  0  0  0  0
   -8.3417    1.8590    3.5445 N   0  0  0  0  0  0  0  0  0  0  0  0
   -6.9638    1.6055    3.5934 C   0  0  0  0  0  0  0  0  0  0  0  0
   -6.4696    1.5727    4.7126 O   0  0  0  0  0  0  0  0  0  0  0  0
   -4.1244    2.4151    2.6355 C   0  0  0  0  0  0  0  0  0  0  0  0
   -4.5129    3.4911    2.1947 O   0  0  0  0  0  0  0  0  0  0  0  0
    3.2838    3.7236   -1.1607 H   0  0  0  0  0  0  0  0  0  0  0  0
    3.9795    3.2763    0.3954 H   0  0  0  0  0  0  0  0  0  0  0  0
    3.9554    0.5807    0.8651 H   0  0  0  0  0  0  0  0  0  0  0  0
    6.6480   -1.3858   -2.3490 H   0  0  0  0  0  0  0  0  0  0  0  0
    7.4970   -1.4522   -4.6840 H   0  0  0  0  0  0  0  0  0  0  0  0
    4.7676   -4.6610   -5.5950 H   0  0  0  0  0  0  0  0  0  0  0  0
    5.0076   -3.9890    1.6041 H   0  0  0  0  0  0  0  0  0  0  0  0
    3.3133   -1.7524   -3.5865 H   0  0  0  0  0  0  0  0  0  0  0  0
    3.0675   -0.4062   -5.6410 H   0  0  0  0  0  0  0  0  0  0  0  0
    3.2149    2.0807   -5.5533 H   0  0  0  0  0  0  0  0  0  0  0  0
    3.5524    3.2202   -3.3558 H   0  0  0  0  0  0  0  0  0  0  0  0
    1.1688    1.7836   -1.4442 H   0  0  0  0  0  0  0  0  0  0  0  0
   -1.0009    3.0233   -1.3046 H   0  0  0  0  0  0  0  0  0  0  0  0
   -0.6742    3.2914    0.4172 H   0  0  0  0  0  0  0  0  0  0  0  0
   -2.2383    1.4942    0.3546 H   0  0  0  0  0  0  0  0  0  0  0  0
   -0.6661    0.7269    0.6811 H   0  0  0  0  0  0  0  0  0  0  0  0
   -2.5392   -0.9405   -2.2272 H   0  0  0  0  0  0  0  0  0  0  0  0
   -3.1179   -0.4773   -0.6172 H   0  0  0  0  0  0  0  0  0  0  0  0
   -0.4445   -1.9321   -1.1140 H   0  0  0  0  0  0  0  0  0  0  0  0
   -1.9838   -2.7722   -0.7864 H   0  0  0  0  0  0  0  0  0  0  0  0
   -1.3133   -3.4920    1.6652 H   0  0  0  0  0  0  0  0  0  0  0  0
    0.2856   -2.9863    1.0531 H   0  0  0  0  0  0  0  0  0  0  0  0
    0.0118   -2.8366    3.6074 H   0  0  0  0  0  0  0  0  0  0  0  0
    0.5713   -1.3631    2.7919 H   0  0  0  0  0  0  0  0  0  0  0  0
   -2.3463   -1.7547    3.3119 H   0  0  0  0  0  0  0  0  0  0  0  0
    0.5269    0.4802    4.0274 H   0  0  0  0  0  0  0  0  0  0  0  0
    0.3330    2.9463    3.8864 H   0  0  0  0  0  0  0  0  0  0  0  0
   -1.8520    4.0120    3.2489 H   0  0  0  0  0  0  0  0  0  0  0  0
   -6.4983   -0.0117    2.3152 H   0  0  0  0  0  0  0  0  0  0  0  0
   -6.4269    1.2368    0.1708 H   0  0  0  0  0  0  0  0  0  0  0  0
   -6.6503    2.7635    1.0312 H   0  0  0  0  0  0  0  0  0  0  0  0
   -8.8542    2.0385    0.2134 H   0  0  0  0  0  0  0  0  0  0  0  0
   -8.6657    0.4409    0.9262 H   0  0  0  0  0  0  0  0  0  0  0  0
   -8.8144    2.0870    4.4076 H   0  0  0  0  0  0  0  0  0  0  0  0
  1  2  2  0  0  0  0
  2  3  1  0  0  0  0
  2 28  1  0  0  0  0
  3  4  1  0  0  0  0
  3 57  1  0  0  0  0
  3 58  1  0  0  0  0
  4  5  1  0  0  0  0
  4 27  1  0  0  0  0
  5  6  2  0  0  0  0
  5 59  1  0  0  0  0
  6  7  1  0  0  0  0
  6 22  1  0  0  0  0
  7  8  2  0  0  0  0
  7 20  1  0  0  0  0
  8  9  1  0  0  0  0
  8 17  1  0  0  0  0
  9 10  2  0  0  0  0
  9 15  1  0  0  0  0
 10 11  1  0  0  0  0
 10 60  1  0  0  0  0
 11 12  2  0  0  0  0
 11 61  1  0  0  0  0
 12 13  1  0  0  0  0
 12 14  1  0  0  0  0
 14 15  2  0  0  0  0
 14 62  1  0  0  0  0
 15 16  1  0  0  0  0
 17 18  2  0  0  0  0
 17 19  1  0  0  0  0
 19 20  1  0  0  0  0
 19 63  1  0  0  0  0
 20 21  2  0  0  0  0
 22 23  2  0  0  0  0
 22 27  1  0  0  0  0
 23 24  1  0  0  0  0
 23 64  1  0  0  0  0
 24 25  2  0  0  0  0
 24 65  1  0  0  0  0
 25 26  1  0  0  0  0
 25 66  1  0  0  0  0
 26 27  2  0  0  0  0
 26 67  1  0  0  0  0
 28 29  1  0  0  0  0
 28 68  1  0  0  0  0
 29 30  1  0  0  0  0
 29 69  1  0  0  0  0
 29 70  1  0  0  0  0
 30 31  1  0  0  0  0
 30 71  1  0  0  0  0
 30 72  1  0  0  0  0
 31 32  1  0  0  0  0
 32 33  1  0  0  0  0
 32 73  1  0  0  0  0
 32 74  1  0  0  0  0
 33 34  1  0  0  0  0
 33 75  1  0  0  0  0
 33 76  1  0  0  0  0
 34 35  1  0  0  0  0
 35 36  1  0  0  0  0
 35 77  1  0  0  0  0
 35 78  1  0  0  0  0
 36 37  1  0  0  0  0
 36 79  1  0  0  0  0
 36 80  1  0  0  0  0
 37 38  1  0  0  0  0
 37 81  1  0  0  0  0
 38 39  2  0  0  0  0
 38 43  1  0  0  0  0
 39 40  1  0  0  0  0
 39 82  1  0  0  0  0
 40 41  2  0  0  0  0
 40 83  1  0  0  0  0
 41 42  1  0  0  0  0
 41 84  1  0  0  0  0
 42 43  2  0  0  0  0
 42 55  1  0  0  0  0
 43 44  1  0  0  0  0
 44 45  2  0  0  0  0
 44 46  1  0  0  0  0
 46 47  1  0  0  0  0
 46 55  1  0  0  0  0
 47 48  1  0  0  0  0
 47 53  1  0  0  0  0
 47 85  1  0  0  0  0
 48 49  1  0  0  0  0
 48 86  1  0  0  0  0
 48 87  1  0  0  0  0
 49 50  1  0  0  0  0
 49 88  1  0  0  0  0
 49 89  1  0  0  0  0
 50 51  2  0  0  0  0
 50 52  1  0  0  0  0
 52 53  1  0  0  0  0
 52 90  1  0  0  0  0
 53 54  2  0  0  0  0
 55 56  2  0  0  0  0
M  END
$$$$
protac3895RUN2
  chem.cr 07102519423D
protac3895RUN2
 90 96  0  0  0  0  0  0  0  0999 V2000
    2.1304    1.7769   -0.8381 O   0  0  0  0  0  0  0  0  0  0  0  0
    1.6962    1.4308   -1.9268 C   0  0  0  0  0  0  0  0  0  0  0  0
    2.5427    1.3939   -3.1860 C   0  0  0  0  0  0  0  0  0  0  0  0
    3.6767    0.4470   -3.1483 N   0  0  0  0  0  0  0  0  0  0  0  0
    3.5977   -0.7973   -2.5091 C   0  0  0  0  0  0  0  0  0  0  0  0
    4.5191   -1.6548   -3.0047 C   0  0  0  0  0  0  0  0  0  0  0  0
    4.8339   -2.8853   -2.4862 C   0  0  0  0  0  0  0  0  0  0  0  0
    5.8990   -3.7071   -2.6767 C   0  0  0  0  0  0  0  0  0  0  0  0
    7.0712   -3.4357   -3.3643 C   0  0  0  0  0  0  0  0  0  0  0  0
    7.8346   -2.3123   -2.9895 C   0  0  0  0  0  0  0  0  0  0  0  0
    9.0473   -2.0213   -3.6336 C   0  0  0  0  0  0  0  0  0  0  0  0
    9.5178   -2.8598   -4.6540 C   0  0  0  0  0  0  0  0  0  0  0  0
   11.0368   -2.4829   -5.4517 Cl  0  0  0  0  0  0  0  0  0  0  0  0
    8.7771   -3.9916   -5.0315 C   0  0  0  0  0  0  0  0  0  0  0  0
    7.5615   -4.2878   -4.3883 C   0  0  0  0  0  0  0  0  0  0  0  0
    6.6464   -5.6954   -4.9321 Cl  0  0  0  0  0  0  0  0  0  0  0  0
    5.8115   -4.7944   -1.8994 C   0  0  0  0  0  0  0  0  0  0  0  0
    6.5749   -5.7192   -1.6543 O   0  0  0  0  0  0  0  0  0  0  0  0
    4.6206   -4.7439   -1.1993 N   0  0  0  0  0  0  0  0  0  0  0  0
    4.0762   -3.5127   -1.5526 C   0  0  0  0  0  0  0  0  0  0  0  0
    3.0275   -3.2211   -0.9891 O   0  0  0  0  0  0  0  0  0  0  0  0
    5.0972   -0.9804   -4.0934 C   0  0  0  0  0  0  0  0  0  0  0  0
    5.8189   -1.4500   -5.2086 C   0  0  0  0  0  0  0  0  0  0  0  0
    6.2032   -0.5451   -6.2217 C   0  0  0  0  0  0  0  0  0  0  0  0
    5.7970    0.8048   -6.1760 C   0  0  0  0  0  0  0  0  0  0  0  0
    4.9555    1.2484   -5.1405 C   0  0  0  0  0  0  0  0  0  0  0  0
    4.6106    0.3296   -4.1407 C   0  0  0  0  0  0  0  0  0  0  0  0
    0.3113    1.5485   -2.0799 N   0  0  0  0  0  0  0  0  0  0  0  0
   -0.4844    0.6563   -2.9358 C   0  0  0  0  0  0  0  0  0  0  0  0
   -1.8579    0.3797   -2.3074 C   0  0  0  0  0  0  0  0  0  0  0  0
   -2.5488   -0.5208   -3.1825 O   0  0  0  0  0  0  0  0  0  0  0  0
   -3.8820   -0.8979   -2.7878 C   0  0  0  0  0  0  0  0  0  0  0  0
   -3.8338   -1.7746   -1.5153 C   0  0  0  0  0  0  0  0  0  0  0  0
   -3.9201   -0.9095   -0.3746 O   0  0  0  0  0  0  0  0  0  0  0  0
   -3.9078   -1.5741    0.8953 C   0  0  0  0  0  0  0  0  0  0  0  0
   -4.1971   -0.5086    1.9690 C   0  0  0  0  0  0  0  0  0  0  0  0
   -3.1303    0.5032    1.9884 N   0  0  0  0  0  0  0  0  0  0  0  0
   -2.6912    1.1228    3.1554 C   0  0  0  0  0  0  0  0  0  0  0  0
   -1.3026    1.2522    3.3785 C   0  0  0  0  0  0  0  0  0  0  0  0
   -0.7996    1.8214    4.5715 C   0  0  0  0  0  0  0  0  0  0  0  0
   -1.6783    2.2754    5.5742 C   0  0  0  0  0  0  0  0  0  0  0  0
   -3.0538    2.1611    5.3390 C   0  0  0  0  0  0  0  0  0  0  0  0
   -3.5575    1.6209    4.1502 C   0  0  0  0  0  0  0  0  0  0  0  0
   -4.9341    1.7288    4.1891 C   0  0  0  0  0  0  0  0  0  0  0  0
   -5.6899    1.8533    3.2326 O   0  0  0  0  0  0  0  0  0  0  0  0
   -5.2842    2.3239    5.4042 N   0  0  0  0  0  0  0  0  0  0  0  0
   -6.6645    2.5933    5.8495 C   0  0  0  0  0  0  0  0  0  0  0  0
   -6.9075    4.1125    5.9742 C   0  0  0  0  0  0  0  0  0  0  0  0
   -8.3355    4.3735    6.5031 C   0  0  0  0  0  0  0  0  0  0  0  0
   -8.6072    3.6066    7.7790 C   0  0  0  0  0  0  0  0  0  0  0  0
   -9.4313    3.9607    8.6100 O   0  0  0  0  0  0  0  0  0  0  0  0
   -8.0633    2.3240    7.9258 N   0  0  0  0  0  0  0  0  0  0  0  0
   -7.0157    1.8424    7.1275 C   0  0  0  0  0  0  0  0  0  0  0  0
   -6.6670    0.6909    7.3527 O   0  0  0  0  0  0  0  0  0  0  0  0
   -4.1090    2.5469    6.1264 C   0  0  0  0  0  0  0  0  0  0  0  0
   -4.0785    3.1577    7.1906 O   0  0  0  0  0  0  0  0  0  0  0  0
    1.9292    1.1526   -4.0604 H   0  0  0  0  0  0  0  0  0  0  0  0
    2.9511    2.3989   -3.3355 H   0  0  0  0  0  0  0  0  0  0  0  0
    2.9391   -0.9005   -1.6505 H   0  0  0  0  0  0  0  0  0  0  0  0
    7.4800   -1.6586   -2.1977 H   0  0  0  0  0  0  0  0  0  0  0  0
    9.6225   -1.1473   -3.3422 H   0  0  0  0  0  0  0  0  0  0  0  0
    9.1419   -4.6414   -5.8229 H   0  0  0  0  0  0  0  0  0  0  0  0
    4.4922   -5.1628   -0.2920 H   0  0  0  0  0  0  0  0  0  0  0  0
    6.0389   -2.4976   -5.3447 H   0  0  0  0  0  0  0  0  0  0  0  0
    6.7935   -0.8994   -7.0633 H   0  0  0  0  0  0  0  0  0  0  0  0
    6.0887    1.4888   -6.9689 H   0  0  0  0  0  0  0  0  0  0  0  0
    4.5698    2.2627   -5.1319 H   0  0  0  0  0  0  0  0  0  0  0  0
   -0.1689    2.0526   -1.3437 H   0  0  0  0  0  0  0  0  0  0  0  0
    0.0454   -0.2967   -3.0721 H   0  0  0  0  0  0  0  0  0  0  0  0
   -0.6246    1.1121   -3.9244 H   0  0  0  0  0  0  0  0  0  0  0  0
   -2.4185    1.3175   -2.1880 H   0  0  0  0  0  0  0  0  0  0  0  0
   -1.7130   -0.0699   -1.3169 H   0  0  0  0  0  0  0  0  0  0  0  0
   -4.3450   -1.4790   -3.5959 H   0  0  0  0  0  0  0  0  0  0  0  0
   -4.5096   -0.0142   -2.6120 H   0  0  0  0  0  0  0  0  0  0  0  0
   -2.9090   -2.3631   -1.5033 H   0  0  0  0  0  0  0  0  0  0  0  0
   -4.6857   -2.4672   -1.5276 H   0  0  0  0  0  0  0  0  0  0  0  0
   -4.6883   -2.3444    0.9371 H   0  0  0  0  0  0  0  0  0  0  0  0
   -2.9372   -2.0528    1.0838 H   0  0  0  0  0  0  0  0  0  0  0  0
   -5.1597   -0.0333    1.7411 H   0  0  0  0  0  0  0  0  0  0  0  0
   -4.2834   -0.9843    2.9543 H   0  0  0  0  0  0  0  0  0  0  0  0
   -2.4798    0.4706    1.2167 H   0  0  0  0  0  0  0  0  0  0  0  0
   -0.6033    0.8877    2.6323 H   0  0  0  0  0  0  0  0  0  0  0  0
    0.2725    1.8986    4.7239 H   0  0  0  0  0  0  0  0  0  0  0  0
   -1.3077    2.7118    6.4994 H   0  0  0  0  0  0  0  0  0  0  0  0
   -7.3450    2.2101    5.0772 H   0  0  0  0  0  0  0  0  0  0  0  0
   -6.7502    4.5956    4.9990 H   0  0  0  0  0  0  0  0  0  0  0  0
   -6.1822    4.5480    6.6728 H   0  0  0  0  0  0  0  0  0  0  0  0
   -8.4733    5.4468    6.6906 H   0  0  0  0  0  0  0  0  0  0  0  0
   -9.0801    4.0876    5.7479 H   0  0  0  0  0  0  0  0  0  0  0  0
   -8.3563    1.7654    8.7134 H   0  0  0  0  0  0  0  0  0  0  0  0
  1  2  2  0  0  0  0
  2  3  1  0  0  0  0
  2 28  1  0  0  0  0
  3  4  1  0  0  0  0
  3 57  1  0  0  0  0
  3 58  1  0  0  0  0
  4  5  1  0  0  0  0
  4 27  1  0  0  0  0
  5  6  2  0  0  0  0
  5 59  1  0  0  0  0
  6  7  1  0  0  0  0
  6 22  1  0  0  0  0
  7  8  2  0  0  0  0
  7 20  1  0  0  0  0
  8  9  1  0  0  0  0
  8 17  1  0  0  0  0
  9 10  2  0  0  0  0
  9 15  1  0  0  0  0
 10 11  1  0  0  0  0
 10 60  1  0  0  0  0
 11 12  2  0  0  0  0
 11 61  1  0  0  0  0
 12 13  1  0  0  0  0
 12 14  1  0  0  0  0
 14 15  2  0  0  0  0
 14 62  1  0  0  0  0
 15 16  1  0  0  0  0
 17 18  2  0  0  0  0
 17 19  1  0  0  0  0
 19 20  1  0  0  0  0
 19 63  1  0  0  0  0
 20 21  2  0  0  0  0
 22 23  2  0  0  0  0
 22 27  1  0  0  0  0
 23 24  1  0  0  0  0
 23 64  1  0  0  0  0
 24 25  2  0  0  0  0
 24 65  1  0  0  0  0
 25 26  1  0  0  0  0
 25 66  1  0  0  0  0
 26 27  2  0  0  0  0
 26 67  1  0  0  0  0
 28 29  1  0  0  0  0
 28 68  1  0  0  0  0
 29 30  1  0  0  0  0
 29 69  1  0  0  0  0
 29 70  1  0  0  0  0
 30 31  1  0  0  0  0
 30 71  1  0  0  0  0
 30 72  1  0  0  0  0
 31 32  1  0  0  0  0
 32 33  1  0  0  0  0
 32 73  1  0  0  0  0
 32 74  1  0  0  0  0
 33 34  1  0  0  0  0
 33 75  1  0  0  0  0
 33 76  1  0  0  0  0
 34 35  1  0  0  0  0
 35 36  1  0  0  0  0
 35 77  1  0  0  0  0
 35 78  1  0  0  0  0
 36 37  1  0  0  0  0
 36 79  1  0  0  0  0
 36 80  1  0  0  0  0
 37 38  1  0  0  0  0
 37 81  1  0  0  0  0
 38 39  2  0  0  0  0
 38 43  1  0  0  0  0
 39 40  1  0  0  0  0
 39 82  1  0  0  0  0
 40 41  2  0  0  0  0
 40 83  1  0  0  0  0
 41 42  1  0  0  0  0
 41 84  1  0  0  0  0
 42 43  2  0  0  0  0
 42 55  1  0  0  0  0
 43 44  1  0  0  0  0
 44 45  2  0  0  0  0
 44 46  1  0  0  0  0
 46 47  1  0  0  0  0
 46 55  1  0  0  0  0
 47 48  1  0  0  0  0
 47 53  1  0  0  0  0
 47 85  1  0  0  0  0
 48 49  1  0  0  0  0
 48 86  1  0  0  0  0
 48 87  1  0  0  0  0
 49 50  1  0  0  0  0
 49 88  1  0  0  0  0
 49 89  1  0  0  0  0
 50 51  2  0  0  0  0
 50 52  1  0  0  0  0
 52 53  1  0  0  0  0
 52 90  1  0  0  0  0
 53 54  2  0  0  0  0
 55 56  2  0  0  0  0
M  END
$$$$
protac3895RUN2
  chem.cr 07102519423D
protac3895RUN2
 90 96  0  0  0  0  0  0  0  0999 V2000
    1.1868    0.1572    1.6891 O   0  0  0  0  0  0  0  0  0  0  0  0
    1.5092    0.1922    0.5139 C   0  0  0  0  0  0  0  0  0  0  0  0
    2.9567    0.2290    0.0893 C   0  0  0  0  0  0  0  0  0  0  0  0
    3.2328   -0.4743   -1.1700 N   0  0  0  0  0  0  0  0  0  0  0  0
    3.0344   -1.8446   -1.3590 C   0  0  0  0  0  0  0  0  0  0  0  0
    3.5288   -2.2143   -2.5603 C   0  0  0  0  0  0  0  0  0  0  0  0
    3.6752   -3.4916   -3.0131 C   0  0  0  0  0  0  0  0  0  0  0  0
    4.4602   -4.0040   -3.9973 C   0  0  0  0  0  0  0  0  0  0  0  0
    5.4721   -3.3443   -4.6770 C   0  0  0  0  0  0  0  0  0  0  0  0
    6.4761   -2.7030   -3.9210 C   0  0  0  0  0  0  0  0  0  0  0  0
    7.5365   -2.0343   -4.5516 C   0  0  0  0  0  0  0  0  0  0  0  0
    7.6155   -2.0179   -5.9508 C   0  0  0  0  0  0  0  0  0  0  0  0
    8.9420   -1.1728   -6.7399 Cl  0  0  0  0  0  0  0  0  0  0  0  0
    6.6360   -2.6692   -6.7185 C   0  0  0  0  0  0  0  0  0  0  0  0
    5.5661   -3.3326   -6.0907 C   0  0  0  0  0  0  0  0  0  0  0  0
    4.3229   -4.0674   -7.1053 Cl  0  0  0  0  0  0  0  0  0  0  0  0
    4.3129   -5.3307   -4.0825 C   0  0  0  0  0  0  0  0  0  0  0  0
    4.8623   -6.1995   -4.7466 O   0  0  0  0  0  0  0  0  0  0  0  0
    3.4055   -5.7316   -3.1173 N   0  0  0  0  0  0  0  0  0  0  0  0
    3.0423   -4.5567   -2.4704 C   0  0  0  0  0  0  0  0  0  0  0  0
    2.2215   -4.6675   -1.5657 O   0  0  0  0  0  0  0  0  0  0  0  0
    3.8984   -1.0183   -3.1992 C   0  0  0  0  0  0  0  0  0  0  0  0
    4.0744   -0.7263   -4.5655 C   0  0  0  0  0  0  0  0  0  0  0  0
    4.3023    0.6062   -4.9680 C   0  0  0  0  0  0  0  0  0  0  0  0
    4.2664    1.6584   -4.0291 C   0  0  0  0  0  0  0  0  0  0  0  0
    3.9471    1.3901   -2.6854 C   0  0  0  0  0  0  0  0  0  0  0  0
    3.7574    0.0516   -2.3153 C   0  0  0  0  0  0  0  0  0  0  0  0
    0.5623    0.7289   -0.3659 N   0  0  0  0  0  0  0  0  0  0  0  0
    0.1688    0.0328   -1.6039 C   0  0  0  0  0  0  0  0  0  0  0  0
   -1.3308    0.2100   -1.8714 C   0  0  0  0  0  0  0  0  0  0  0  0
   -1.7380   -0.7523   -2.8532 O   0  0  0  0  0  0  0  0  0  0  0  0
   -3.1262   -0.7137   -3.2565 C   0  0  0  0  0  0  0  0  0  0  0  0
   -4.0635   -1.1599   -2.1006 C   0  0  0  0  0  0  0  0  0  0  0  0
   -4.2437   -0.0558   -1.2004 O   0  0  0  0  0  0  0  0  0  0  0  0
   -5.0195   -0.3277   -0.0214 C   0  0  0  0  0  0  0  0  0  0  0  0
   -4.5956    0.7046    1.0445 C   0  0  0  0  0  0  0  0  0  0  0  0
   -3.1403    0.6177    1.2194 N   0  0  0  0  0  0  0  0  0  0  0  0
   -2.5300    0.4384    2.4503 C   0  0  0  0  0  0  0  0  0  0  0  0
   -1.6346   -0.6387    2.6144 C   0  0  0  0  0  0  0  0  0  0  0  0
   -0.9749   -0.8672    3.8445 C   0  0  0  0  0  0  0  0  0  0  0  0
   -1.2021   -0.0134    4.9416 C   0  0  0  0  0  0  0  0  0  0  0  0
   -2.0918    1.0542    4.7678 C   0  0  0  0  0  0  0  0  0  0  0  0
   -2.7350    1.2868    3.5516 C   0  0  0  0  0  0  0  0  0  0  0  0
   -3.4898    2.4319    3.6961 C   0  0  0  0  0  0  0  0  0  0  0  0
   -3.9962    3.1277    2.8233 O   0  0  0  0  0  0  0  0  0  0  0  0
   -3.3377    2.9200    5.0012 N   0  0  0  0  0  0  0  0  0  0  0  0
   -4.4213    3.6632    5.6772 C   0  0  0  0  0  0  0  0  0  0  0  0
   -3.8850    4.7817    6.6003 C   0  0  0  0  0  0  0  0  0  0  0  0
   -5.0702    5.4838    7.2981 C   0  0  0  0  0  0  0  0  0  0  0  0
   -5.9528    4.4931    8.0259 C   0  0  0  0  0  0  0  0  0  0  0  0
   -6.6609    4.7991    8.9722 O   0  0  0  0  0  0  0  0  0  0  0  0
   -6.1602    3.2306    7.4582 N   0  0  0  0  0  0  0  0  0  0  0  0
   -5.3732    2.7253    6.4145 C   0  0  0  0  0  0  0  0  0  0  0  0
   -5.6673    1.6022    6.0243 O   0  0  0  0  0  0  0  0  0  0  0  0
   -2.4719    2.0306    5.6547 C   0  0  0  0  0  0  0  0  0  0  0  0
   -2.0432    2.2239    6.7869 O   0  0  0  0  0  0  0  0  0  0  0  0
    3.2730    1.2730    0.0102 H   0  0  0  0  0  0  0  0  0  0  0  0
    3.5607   -0.2320    0.8791 H   0  0  0  0  0  0  0  0  0  0  0  0
    2.6583   -2.4499   -0.5371 H   0  0  0  0  0  0  0  0  0  0  0  0
    6.4232   -2.7150   -2.8349 H   0  0  0  0  0  0  0  0  0  0  0  0
    8.2933   -1.5311   -3.9561 H   0  0  0  0  0  0  0  0  0  0  0  0
    6.7035   -2.6551   -7.8036 H   0  0  0  0  0  0  0  0  0  0  0  0
    2.8351   -6.5603   -3.1724 H   0  0  0  0  0  0  0  0  0  0  0  0
    3.9732   -1.4919   -5.3200 H   0  0  0  0  0  0  0  0  0  0  0  0
    4.4665    0.8263   -6.0199 H   0  0  0  0  0  0  0  0  0  0  0  0
    4.4143    2.6830   -4.3588 H   0  0  0  0  0  0  0  0  0  0  0  0
    3.8156    2.2012   -1.9779 H   0  0  0  0  0  0  0  0  0  0  0  0
   -0.1229    1.3448    0.0562 H   0  0  0  0  0  0  0  0  0  0  0  0
    0.3817   -1.0399   -1.5023 H   0  0  0  0  0  0  0  0  0  0  0  0
    0.7538    0.4150   -2.4522 H   0  0  0  0  0  0  0  0  0  0  0  0
   -1.5448    1.2370   -2.1986 H   0  0  0  0  0  0  0  0  0  0  0  0
   -1.8548    0.0228   -0.9340 H   0  0  0  0  0  0  0  0  0  0  0  0
   -3.2728   -1.4011   -4.1005 H   0  0  0  0  0  0  0  0  0  0  0  0
   -3.4072    0.2917   -3.5961 H   0  0  0  0  0  0  0  0  0  0  0  0
   -3.6217   -2.0223   -1.5848 H   0  0  0  0  0  0  0  0  0  0  0  0
   -5.0326   -1.4615   -2.5181 H   0  0  0  0  0  0  0  0  0  0  0  0
   -6.0955   -0.2476   -0.2302 H   0  0  0  0  0  0  0  0  0  0  0  0
   -4.8151   -1.3371    0.3629 H   0  0  0  0  0  0  0  0  0  0  0  0
   -4.8698    1.7142    0.7121 H   0  0  0  0  0  0  0  0  0  0  0  0
   -5.1125    0.5034    1.9918 H   0  0  0  0  0  0  0  0  0  0  0  0
   -2.6657    0.1804    0.4433 H   0  0  0  0  0  0  0  0  0  0  0  0
   -1.4356   -1.3033    1.7800 H   0  0  0  0  0  0  0  0  0  0  0  0
   -0.2822   -1.6994    3.9405 H   0  0  0  0  0  0  0  0  0  0  0  0
   -0.6953   -0.1646    5.8905 H   0  0  0  0  0  0  0  0  0  0  0  0
   -5.0133    4.1496    4.8906 H   0  0  0  0  0  0  0  0  0  0  0  0
   -3.2872    5.5004    6.0245 H   0  0  0  0  0  0  0  0  0  0  0  0
   -3.2261    4.3556    7.3675 H   0  0  0  0  0  0  0  0  0  0  0  0
   -4.7001    6.2294    8.0142 H   0  0  0  0  0  0  0  0  0  0  0  0
   -5.6779    6.0285    6.5638 H   0  0  0  0  0  0  0  0  0  0  0  0
   -6.8361    2.6132    7.8838 H   0  0  0  0  0  0  0  0  0  0  0  0
  1  2  2  0  0  0  0
  2  3  1  0  0  0  0
  2 28  1  0  0  0  0
  3  4  1  0  0  0  0
  3 57  1  0  0  0  0
  3 58  1  0  0  0  0
  4  5  1  0  0  0  0
  4 27  1  0  0  0  0
  5  6  2  0  0  0  0
  5 59  1  0  0  0  0
  6  7  1  0  0  0  0
  6 22  1  0  0  0  0
  7  8  2  0  0  0  0
  7 20  1  0  0  0  0
  8  9  1  0  0  0  0
  8 17  1  0  0  0  0
  9 10  2  0  0  0  0
  9 15  1  0  0  0  0
 10 11  1  0  0  0  0
 10 60  1  0  0  0  0
 11 12  2  0  0  0  0
 11 61  1  0  0  0  0
 12 13  1  0  0  0  0
 12 14  1  0  0  0  0
 14 15  2  0  0  0  0
 14 62  1  0  0  0  0
 15 16  1  0  0  0  0
 17 18  2  0  0  0  0
 17 19  1  0  0  0  0
 19 20  1  0  0  0  0
 19 63  1  0  0  0  0
 20 21  2  0  0  0  0
 22 23  2  0  0  0  0
 22 27  1  0  0  0  0
 23 24  1  0  0  0  0
 23 64  1  0  0  0  0
 24 25  2  0  0  0  0
 24 65  1  0  0  0  0
 25 26  1  0  0  0  0
 25 66  1  0  0  0  0
 26 27  2  0  0  0  0
 26 67  1  0  0  0  0
 28 29  1  0  0  0  0
 28 68  1  0  0  0  0
 29 30  1  0  0  0  0
 29 69  1  0  0  0  0
 29 70  1  0  0  0  0
 30 31  1  0  0  0  0
 30 71  1  0  0  0  0
 30 72  1  0  0  0  0
 31 32  1  0  0  0  0
 32 33  1  0  0  0  0
 32 73  1  0  0  0  0
 32 74  1  0  0  0  0
 33 34  1  0  0  0  0
 33 75  1  0  0  0  0
 33 76  1  0  0  0  0
 34 35  1  0  0  0  0
 35 36  1  0  0  0  0
 35 77  1  0  0  0  0
 35 78  1  0  0  0  0
 36 37  1  0  0  0  0
 36 79  1  0  0  0  0
 36 80  1  0  0  0  0
 37 38  1  0  0  0  0
 37 81  1  0  0  0  0
 38 39  2  0  0  0  0
 38 43  1  0  0  0  0
 39 40  1  0  0  0  0
 39 82  1  0  0  0  0
 40 41  2  0  0  0  0
 40 83  1  0  0  0  0
 41 42  1  0  0  0  0
 41 84  1  0  0  0  0
 42 43  2  0  0  0  0
 42 55  1  0  0  0  0
 43 44  1  0  0  0  0
 44 45  2  0  0  0  0
 44 46  1  0  0  0  0
 46 47  1  0  0  0  0
 46 55  1  0  0  0  0
 47 48  1  0  0  0  0
 47 53  1  0  0  0  0
 47 85  1  0  0  0  0
 48 49  1  0  0  0  0
 48 86  1  0  0  0  0
 48 87  1  0  0  0  0
 49 50  1  0  0  0  0
 49 88  1  0  0  0  0
 49 89  1  0  0  0  0
 50 51  2  0  0  0  0
 50 52  1  0  0  0  0
 52 53  1  0  0  0  0
 52 90  1  0  0  0  0
 53 54  2  0  0  0  0
 55 56  2  0  0  0  0
M  END
$$$$
protac3895RUN2
  chem.cr 07102519423D
protac3895RUN2
 90 96  0  0  0  0  0  0  0  0999 V2000
    2.6169   -1.5042    2.4695 O   0  0  0  0  0  0  0  0  0  0  0  0
    2.5887   -1.6112    1.2518 C   0  0  0  0  0  0  0  0  0  0  0  0
    3.6480   -1.0297    0.3404 C   0  0  0  0  0  0  0  0  0  0  0  0
    3.3267   -1.0730   -1.1050 N   0  0  0  0  0  0  0  0  0  0  0  0
    3.7263   -2.1619   -1.8875 C   0  0  0  0  0  0  0  0  0  0  0  0
    3.8875   -1.8066   -3.1825 C   0  0  0  0  0  0  0  0  0  0  0  0
    4.1063   -2.6780   -4.2243 C   0  0  0  0  0  0  0  0  0  0  0  0
    4.0689   -2.5343   -5.5789 C   0  0  0  0  0  0  0  0  0  0  0  0
    3.7056   -1.4335   -6.3317 C   0  0  0  0  0  0  0  0  0  0  0  0
    4.6398   -0.8999   -7.2467 C   0  0  0  0  0  0  0  0  0  0  0  0
    4.2999    0.1959   -8.0585 C   0  0  0  0  0  0  0  0  0  0  0  0
    3.0180    0.7579   -7.9724 C   0  0  0  0  0  0  0  0  0  0  0  0
    2.5923    2.1291   -8.9875 Cl  0  0  0  0  0  0  0  0  0  0  0  0
    2.0693    0.2147   -7.0921 C   0  0  0  0  0  0  0  0  0  0  0  0
    2.4021   -0.8846   -6.2804 C   0  0  0  0  0  0  0  0  0  0  0  0
    1.1581   -1.5638   -5.2287 Cl  0  0  0  0  0  0  0  0  0  0  0  0
    4.3245   -3.6917   -6.1976 C   0  0  0  0  0  0  0  0  0  0  0  0
    4.3344   -4.0321   -7.3735 O   0  0  0  0  0  0  0  0  0  0  0  0
    4.5761   -4.6568   -5.2451 N   0  0  0  0  0  0  0  0  0  0  0  0
    4.3773   -3.9971   -4.0376 C   0  0  0  0  0  0  0  0  0  0  0  0
    4.4922   -4.7006   -3.0409 O   0  0  0  0  0  0  0  0  0  0  0  0
    3.7132   -0.4068   -3.1925 C   0  0  0  0  0  0  0  0  0  0  0  0
    4.0737    0.5915   -4.1211 C   0  0  0  0  0  0  0  0  0  0  0  0
    3.8124    1.9476   -3.8278 C   0  0  0  0  0  0  0  0  0  0  0  0
    3.2751    2.3294   -2.5828 C   0  0  0  0  0  0  0  0  0  0  0  0
    3.0496    1.3573   -1.5941 C   0  0  0  0  0  0  0  0  0  0  0  0
    3.3037    0.0195   -1.9231 C   0  0  0  0  0  0  0  0  0  0  0  0
    1.5504   -2.3350    0.6519 N   0  0  0  0  0  0  0  0  0  0  0  0
    0.5640   -3.1346    1.3916 C   0  0  0  0  0  0  0  0  0  0  0  0
   -0.2411   -3.9995    0.4028 C   0  0  0  0  0  0  0  0  0  0  0  0
   -1.4424   -4.4775    1.0286 O   0  0  0  0  0  0  0  0  0  0  0  0
   -2.6800   -3.8643    0.6053 C   0  0  0  0  0  0  0  0  0  0  0  0
   -3.0026   -2.6240    1.4766 C   0  0  0  0  0  0  0  0  0  0  0  0
   -2.1097   -1.5321    1.2029 O   0  0  0  0  0  0  0  0  0  0  0  0
   -2.2453   -0.8589   -0.0541 C   0  0  0  0  0  0  0  0  0  0  0  0
   -1.3274    0.3801   -0.0012 C   0  0  0  0  0  0  0  0  0  0  0  0
   -1.7665    1.3074    1.0605 N   0  0  0  0  0  0  0  0  0  0  0  0
   -1.3856    1.2427    2.3987 C   0  0  0  0  0  0  0  0  0  0  0  0
   -0.1876    0.6316    2.8415 C   0  0  0  0  0  0  0  0  0  0  0  0
    0.1551    0.5957    4.2160 C   0  0  0  0  0  0  0  0  0  0  0  0
   -0.6908    1.1780    5.1812 C   0  0  0  0  0  0  0  0  0  0  0  0
   -1.8750    1.7763    4.7357 C   0  0  0  0  0  0  0  0  0  0  0  0
   -2.2126    1.8072    3.3805 C   0  0  0  0  0  0  0  0  0  0  0  0
   -3.4231    2.4498    3.2639 C   0  0  0  0  0  0  0  0  0  0  0  0
   -3.9775    2.8551    2.2482 O   0  0  0  0  0  0  0  0  0  0  0  0
   -3.8273    2.8579    4.5363 N   0  0  0  0  0  0  0  0  0  0  0  0
   -5.1178    3.4901    4.8663 C   0  0  0  0  0  0  0  0  0  0  0  0
   -4.9083    5.0036    5.0847 C   0  0  0  0  0  0  0  0  0  0  0  0
   -6.2073    5.6471    5.6100 C   0  0  0  0  0  0  0  0  0  0  0  0
   -6.6793    4.9613    6.8701 C   0  0  0  0  0  0  0  0  0  0  0  0
   -7.3350    5.5191    7.7364 O   0  0  0  0  0  0  0  0  0  0  0  0
   -6.5542    3.5724    6.9589 N   0  0  0  0  0  0  0  0  0  0  0  0
   -5.8145    2.8072    6.0442 C   0  0  0  0  0  0  0  0  0  0  0  0
   -5.9487    1.5947    6.1365 O   0  0  0  0  0  0  0  0  0  0  0  0
   -2.8665    2.4077    5.4527 C   0  0  0  0  0  0  0  0  0  0  0  0
   -2.7863    2.8692    6.5861 O   0  0  0  0  0  0  0  0  0  0  0  0
    3.8310    0.0080    0.6387 H   0  0  0  0  0  0  0  0  0  0  0  0
    4.5856   -1.5727    0.5070 H   0  0  0  0  0  0  0  0  0  0  0  0
    3.7632   -3.1427   -1.4197 H   0  0  0  0  0  0  0  0  0  0  0  0
    5.6331   -1.3372   -7.3199 H   0  0  0  0  0  0  0  0  0  0  0  0
    5.0255    0.6046   -8.7562 H   0  0  0  0  0  0  0  0  0  0  0  0
    1.0716    0.6397   -7.0441 H   0  0  0  0  0  0  0  0  0  0  0  0
    4.4026   -5.6403   -5.3799 H   0  0  0  0  0  0  0  0  0  0  0  0
    4.5962    0.3632   -5.0340 H   0  0  0  0  0  0  0  0  0  0  0  0
    4.0566    2.7103   -4.5629 H   0  0  0  0  0  0  0  0  0  0  0  0
    3.0917    3.3796   -2.3693 H   0  0  0  0  0  0  0  0  0  0  0  0
    2.7128    1.6401   -0.6020 H   0  0  0  0  0  0  0  0  0  0  0  0
    1.4864   -2.3010   -0.3583 H   0  0  0  0  0  0  0  0  0  0  0  0
   -0.0910   -2.4657    1.9621 H   0  0  0  0  0  0  0  0  0  0  0  0
    1.0781   -3.7802    2.1165 H   0  0  0  0  0  0  0  0  0  0  0  0
    0.3820   -4.8486    0.0942 H   0  0  0  0  0  0  0  0  0  0  0  0
   -0.4758   -3.4172   -0.4967 H   0  0  0  0  0  0  0  0  0  0  0  0
   -3.4942   -4.5870    0.7442 H   0  0  0  0  0  0  0  0  0  0  0  0
   -2.6657   -3.6073   -0.4613 H   0  0  0  0  0  0  0  0  0  0  0  0
   -2.9190   -2.9127    2.5325 H   0  0  0  0  0  0  0  0  0  0  0  0
   -4.0417   -2.3161    1.3022 H   0  0  0  0  0  0  0  0  0  0  0  0
   -1.9411   -1.5085   -0.8838 H   0  0  0  0  0  0  0  0  0  0  0  0
   -3.2830   -0.5416   -0.2185 H   0  0  0  0  0  0  0  0  0  0  0  0
   -0.2904    0.0593    0.1508 H   0  0  0  0  0  0  0  0  0  0  0  0
   -1.3675    0.8956   -0.9690 H   0  0  0  0  0  0  0  0  0  0  0  0
   -2.6184    1.8336    0.8974 H   0  0  0  0  0  0  0  0  0  0  0  0
    0.4932    0.1804    2.1306 H   0  0  0  0  0  0  0  0  0  0  0  0
    1.0780    0.1129    4.5290 H   0  0  0  0  0  0  0  0  0  0  0  0
   -0.4401    1.1610    6.2386 H   0  0  0  0  0  0  0  0  0  0  0  0
   -5.7820    3.3586    4.0028 H   0  0  0  0  0  0  0  0  0  0  0  0
   -4.5862    5.4752    4.1464 H   0  0  0  0  0  0  0  0  0  0  0  0
   -4.1027    5.1585    5.8170 H   0  0  0  0  0  0  0  0  0  0  0  0
   -6.0469    6.7135    5.8127 H   0  0  0  0  0  0  0  0  0  0  0  0
   -6.9979    5.5854    4.8522 H   0  0  0  0  0  0  0  0  0  0  0  0
   -6.9882    3.0990    7.7377 H   0  0  0  0  0  0  0  0  0  0  0  0
  1  2  2  0  0  0  0
  2  3  1  0  0  0  0
  2 28  1  0  0  0  0
  3  4  1  0  0  0  0
  3 57  1  0  0  0  0
  3 58  1  0  0  0  0
  4  5  1  0  0  0  0
  4 27  1  0  0  0  0
  5  6  2  0  0  0  0
  5 59  1  0  0  0  0
  6  7  1  0  0  0  0
  6 22  1  0  0  0  0
  7  8  2  0  0  0  0
  7 20  1  0  0  0  0
  8  9  1  0  0  0  0
  8 17  1  0  0  0  0
  9 10  2  0  0  0  0
  9 15  1  0  0  0  0
 10 11  1  0  0  0  0
 10 60  1  0  0  0  0
 11 12  2  0  0  0  0
 11 61  1  0  0  0  0
 12 13  1  0  0  0  0
 12 14  1  0  0  0  0
 14 15  2  0  0  0  0
 14 62  1  0  0  0  0
 15 16  1  0  0  0  0
 17 18  2  0  0  0  0
 17 19  1  0  0  0  0
 19 20  1  0  0  0  0
 19 63  1  0  0  0  0
 20 21  2  0  0  0  0
 22 23  2  0  0  0  0
 22 27  1  0  0  0  0
 23 24  1  0  0  0  0
 23 64  1  0  0  0  0
 24 25  2  0  0  0  0
 24 65  1  0  0  0  0
 25 26  1  0  0  0  0
 25 66  1  0  0  0  0
 26 27  2  0  0  0  0
 26 67  1  0  0  0  0
 28 29  1  0  0  0  0
 28 68  1  0  0  0  0
 29 30  1  0  0  0  0
 29 69  1  0  0  0  0
 29 70  1  0  0  0  0
 30 31  1  0  0  0  0
 30 71  1  0  0  0  0
 30 72  1  0  0  0  0
 31 32  1  0  0  0  0
 32 33  1  0  0  0  0
 32 73  1  0  0  0  0
 32 74  1  0  0  0  0
 33 34  1  0  0  0  0
 33 75  1  0  0  0  0
 33 76  1  0  0  0  0
 34 35  1  0  0  0  0
 35 36  1  0  0  0  0
 35 77  1  0  0  0  0
 35 78  1  0  0  0  0
 36 37  1  0  0  0  0
 36 79  1  0  0  0  0
 36 80  1  0  0  0  0
 37 38  1  0  0  0  0
 37 81  1  0  0  0  0
 38 39  2  0  0  0  0
 38 43  1  0  0  0  0
 39 40  1  0  0  0  0
 39 82  1  0  0  0  0
 40 41  2  0  0  0  0
 40 83  1  0  0  0  0
 41 42  1  0  0  0  0
 41 84  1  0  0  0  0
 42 43  2  0  0  0  0
 42 55  1  0  0  0  0
 43 44  1  0  0  0  0
 44 45  2  0  0  0  0
 44 46  1  0  0  0  0
 46 47  1  0  0  0  0
 46 55  1  0  0  0  0
 47 48  1  0  0  0  0
 47 53  1  0  0  0  0
 47 85  1  0  0  0  0
 48 49  1  0  0  0  0
 48 86  1  0  0  0  0
 48 87  1  0  0  0  0
 49 50  1  0  0  0  0
 49 88  1  0  0  0  0
 49 89  1  0  0  0  0
 50 51  2  0  0  0  0
 50 52  1  0  0  0  0
 52 53  1  0  0  0  0
 52 90  1  0  0  0  0
 53 54  2  0  0  0  0
 55 56  2  0  0  0  0
M  END
$$$$
protac3895RUN2
  chem.cr 07102519423D
protac3895RUN2
 90 96  0  0  0  0  0  0  0  0999 V2000
    4.0164   -5.7751    0.7352 O   0  0  0  0  0  0  0  0  0  0  0  0
    3.7803   -4.5829    0.6346 C   0  0  0  0  0  0  0  0  0  0  0  0
    4.7479   -3.6015    0.0227 C   0  0  0  0  0  0  0  0  0  0  0  0
    4.0947   -2.6055   -0.8345 N   0  0  0  0  0  0  0  0  0  0  0  0
    3.8077   -2.8087   -2.1834 C   0  0  0  0  0  0  0  0  0  0  0  0
    3.2238   -1.7085   -2.7100 C   0  0  0  0  0  0  0  0  0  0  0  0
    2.6816   -1.6355   -3.9731 C   0  0  0  0  0  0  0  0  0  0  0  0
    1.8742   -0.7213   -4.5746 C   0  0  0  0  0  0  0  0  0  0  0  0
    1.2741    0.3992   -4.0326 C   0  0  0  0  0  0  0  0  0  0  0  0
    1.5312    1.6538   -4.6238 C   0  0  0  0  0  0  0  0  0  0  0  0
    0.9380    2.8230   -4.1184 C   0  0  0  0  0  0  0  0  0  0  0  0
    0.0545    2.7476   -3.0310 C   0  0  0  0  0  0  0  0  0  0  0  0
   -0.7132    4.2001   -2.4073 Cl  0  0  0  0  0  0  0  0  0  0  0  0
   -0.2249    1.5074   -2.4451 C   0  0  0  0  0  0  0  0  0  0  0  0
    0.3738    0.3327   -2.9367 C   0  0  0  0  0  0  0  0  0  0  0  0
   -0.0392   -1.1999   -2.1610 Cl  0  0  0  0  0  0  0  0  0  0  0  0
    1.5843   -1.0844   -5.8336 C   0  0  0  0  0  0  0  0  0  0  0  0
    0.8777   -0.6019   -6.7067 O   0  0  0  0  0  0  0  0  0  0  0  0
    2.2370   -2.2680   -6.1106 N   0  0  0  0  0  0  0  0  0  0  0  0
    2.8590   -2.5962   -4.9130 C   0  0  0  0  0  0  0  0  0  0  0  0
    3.4675   -3.6629   -4.9309 O   0  0  0  0  0  0  0  0  0  0  0  0
    3.2685   -0.7409   -1.6803 C   0  0  0  0  0  0  0  0  0  0  0  0
    3.1519    0.6653   -1.6894 C   0  0  0  0  0  0  0  0  0  0  0  0
    3.3555    1.3985   -0.5045 C   0  0  0  0  0  0  0  0  0  0  0  0
    3.7669    0.7602    0.6831 C   0  0  0  0  0  0  0  0  0  0  0  0
    3.9976   -0.6254    0.6841 C   0  0  0  0  0  0  0  0  0  0  0  0
    3.7613   -1.3268   -0.5059 C   0  0  0  0  0  0  0  0  0  0  0  0
    2.6011   -4.0534    1.1959 N   0  0  0  0  0  0  0  0  0  0  0  0
    1.5556   -4.8751    1.8385 C   0  0  0  0  0  0  0  0  0  0  0  0
    0.1312   -4.4704    1.4048 C   0  0  0  0  0  0  0  0  0  0  0  0
   -0.7251   -5.5950    1.6665 O   0  0  0  0  0  0  0  0  0  0  0  0
   -2.1184   -5.4341    1.3475 C   0  0  0  0  0  0  0  0  0  0  0  0
   -2.7884   -4.4757    2.3695 C   0  0  0  0  0  0  0  0  0  0  0  0
   -2.7947   -3.1403    1.8288 O   0  0  0  0  0  0  0  0  0  0  0  0
   -3.8962   -2.8102    0.9682 C   0  0  0  0  0  0  0  0  0  0  0  0
   -3.5161   -1.5511    0.1654 C   0  0  0  0  0  0  0  0  0  0  0  0
   -3.3125   -0.3654    1.0158 N   0  0  0  0  0  0  0  0  0  0  0  0
   -2.0750    0.2402    1.1885 C   0  0  0  0  0  0  0  0  0  0  0  0
   -0.8657   -0.4969    1.2117 C   0  0  0  0  0  0  0  0  0  0  0  0
    0.3782    0.1451    1.4018 C   0  0  0  0  0  0  0  0  0  0  0  0
    0.4437    1.5405    1.5684 C   0  0  0  0  0  0  0  0  0  0  0  0
   -0.7523    2.2598    1.5481 C   0  0  0  0  0  0  0  0  0  0  0  0
   -1.9788    1.6280    1.3589 C   0  0  0  0  0  0  0  0  0  0  0  0
   -2.9548    2.6006    1.3768 C   0  0  0  0  0  0  0  0  0  0  0  0
   -4.1526    2.4851    1.1377 O   0  0  0  0  0  0  0  0  0  0  0  0
   -2.3496    3.8539    1.5592 N   0  0  0  0  0  0  0  0  0  0  0  0
   -3.0639    5.0005    2.1663 C   0  0  0  0  0  0  0  0  0  0  0  0
   -2.6828    6.3465    1.5046 C   0  0  0  0  0  0  0  0  0  0  0  0
   -3.4285    7.5018    2.2070 C   0  0  0  0  0  0  0  0  0  0  0  0
   -3.2182    7.4868    3.7053 C   0  0  0  0  0  0  0  0  0  0  0  0
   -3.2999    8.4907    4.3992 O   0  0  0  0  0  0  0  0  0  0  0  0
   -3.0936    6.2537    4.3594 N   0  0  0  0  0  0  0  0  0  0  0  0
   -2.8982    5.0439    3.6812 C   0  0  0  0  0  0  0  0  0  0  0  0
   -2.7850    4.0539    4.3900 O   0  0  0  0  0  0  0  0  0  0  0  0
   -0.9737    3.6082    1.7010 C   0  0  0  0  0  0  0  0  0  0  0  0
   -0.1378    4.5065    1.6916 O   0  0  0  0  0  0  0  0  0  0  0  0
    5.2998   -3.0932    0.8187 H   0  0  0  0  0  0  0  0  0  0  0  0
    5.4854   -4.1515   -0.5742 H   0  0  0  0  0  0  0  0  0  0  0  0
    3.9774   -3.7963   -2.6080 H   0  0  0  0  0  0  0  0  0  0  0  0
    2.2074    1.7237   -5.4747 H   0  0  0  0  0  0  0  0  0  0  0  0
    1.1498    3.7824   -4.5793 H   0  0  0  0  0  0  0  0  0  0  0  0
   -0.9134    1.4533   -1.6062 H   0  0  0  0  0  0  0  0  0  0  0  0
    1.8961   -2.9541   -6.7629 H   0  0  0  0  0  0  0  0  0  0  0  0
    2.9734    1.2235   -2.5895 H   0  0  0  0  0  0  0  0  0  0  0  0
    3.2530    2.4794   -0.5281 H   0  0  0  0  0  0  0  0  0  0  0  0
    3.9628    1.3519    1.5769 H   0  0  0  0  0  0  0  0  0  0  0  0
    4.3893   -1.1193    1.5669 H   0  0  0  0  0  0  0  0  0  0  0  0
    2.4273   -3.0664    1.0522 H   0  0  0  0  0  0  0  0  0  0  0  0
    1.6367   -4.7747    2.9266 H   0  0  0  0  0  0  0  0  0  0  0  0
    1.7158   -5.9313    1.5918 H   0  0  0  0  0  0  0  0  0  0  0  0
    0.1232   -4.2279    0.3323 H   0  0  0  0  0  0  0  0  0  0  0  0
   -0.1921   -3.5875    1.9716 H   0  0  0  0  0  0  0  0  0  0  0  0
   -2.6100   -6.4129    1.3977 H   0  0  0  0  0  0  0  0  0  0  0  0
   -2.2440   -5.0598    0.3224 H   0  0  0  0  0  0  0  0  0  0  0  0
   -2.2213   -4.4990    3.3101 H   0  0  0  0  0  0  0  0  0  0  0  0
   -3.8096   -4.8128    2.5950 H   0  0  0  0  0  0  0  0  0  0  0  0
   -4.1118   -3.6239    0.2651 H   0  0  0  0  0  0  0  0  0  0  0  0
   -4.8025   -2.6143    1.5568 H   0  0  0  0  0  0  0  0  0  0  0  0
   -2.6117   -1.7666   -0.4187 H   0  0  0  0  0  0  0  0  0  0  0  0
   -4.3099   -1.3303   -0.5593 H   0  0  0  0  0  0  0  0  0  0  0  0
   -4.1123    0.2347    1.1988 H   0  0  0  0  0  0  0  0  0  0  0  0
   -0.8872   -1.5745    1.1002 H   0  0  0  0  0  0  0  0  0  0  0  0
    1.2878   -0.4454    1.4280 H   0  0  0  0  0  0  0  0  0  0  0  0
    1.3933    2.0514    1.7171 H   0  0  0  0  0  0  0  0  0  0  0  0
   -4.1336    4.8463    1.9733 H   0  0  0  0  0  0  0  0  0  0  0  0
   -2.9222    6.3207    0.4305 H   0  0  0  0  0  0  0  0  0  0  0  0
   -1.6026    6.5170    1.5881 H   0  0  0  0  0  0  0  0  0  0  0  0
   -3.0856    8.4680    1.8066 H   0  0  0  0  0  0  0  0  0  0  0  0
   -4.5008    7.4396    1.9983 H   0  0  0  0  0  0  0  0  0  0  0  0
   -3.1063    6.2318    5.3707 H   0  0  0  0  0  0  0  0  0  0  0  0
  1  2  2  0  0  0  0
  2  3  1  0  0  0  0
  2 28  1  0  0  0  0
  3  4  1  0  0  0  0
  3 57  1  0  0  0  0
  3 58  1  0  0  0  0
  4  5  1  0  0  0  0
  4 27  1  0  0  0  0
  5  6  2  0  0  0  0
  5 59  1  0  0  0  0
  6  7  1  0  0  0  0
  6 22  1  0  0  0  0
  7  8  2  0  0  0  0
  7 20  1  0  0  0  0
  8  9  1  0  0  0  0
  8 17  1  0  0  0  0
  9 10  2  0  0  0  0
  9 15  1  0  0  0  0
 10 11  1  0  0  0  0
 10 60  1  0  0  0  0
 11 12  2  0  0  0  0
 11 61  1  0  0  0  0
 12 13  1  0  0  0  0
 12 14  1  0  0  0  0
 14 15  2  0  0  0  0
 14 62  1  0  0  0  0
 15 16  1  0  0  0  0
 17 18  2  0  0  0  0
 17 19  1  0  0  0  0
 19 20  1  0  0  0  0
 19 63  1  0  0  0  0
 20 21  2  0  0  0  0
 22 23  2  0  0  0  0
 22 27  1  0  0  0  0
 23 24  1  0  0  0  0
 23 64  1  0  0  0  0
 24 25  2  0  0  0  0
 24 65  1  0  0  0  0
 25 26  1  0  0  0  0
 25 66  1  0  0  0  0
 26 27  2  0  0  0  0
 26 67  1  0  0  0  0
 28 29  1  0  0  0  0
 28 68  1  0  0  0  0
 29 30  1  0  0  0  0
 29 69  1  0  0  0  0
 29 70  1  0  0  0  0
 30 31  1  0  0  0  0
 30 71  1  0  0  0  0
 30 72  1  0  0  0  0
 31 32  1  0  0  0  0
 32 33  1  0  0  0  0
 32 73  1  0  0  0  0
 32 74  1  0  0  0  0
 33 34  1  0  0  0  0
 33 75  1  0  0  0  0
 33 76  1  0  0  0  0
 34 35  1  0  0  0  0
 35 36  1  0  0  0  0
 35 77  1  0  0  0  0
 35 78  1  0  0  0  0
 36 37  1  0  0  0  0
 36 79  1  0  0  0  0
 36 80  1  0  0  0  0
 37 38  1  0  0  0  0
 37 81  1  0  0  0  0
 38 39  2  0  0  0  0
 38 43  1  0  0  0  0
 39 40  1  0  0  0  0
 39 82  1  0  0  0  0
 40 41  2  0  0  0  0
 40 83  1  0  0  0  0
 41 42  1  0  0  0  0
 41 84  1  0  0  0  0
 42 43  2  0  0  0  0
 42 55  1  0  0  0  0
 43 44  1  0  0  0  0
 44 45  2  0  0  0  0
 44 46  1  0  0  0  0
 46 47  1  0  0  0  0
 46 55  1  0  0  0  0
 47 48  1  0  0  0  0
 47 53  1  0  0  0  0
 47 85  1  0  0  0  0
 48 49  1  0  0  0  0
 48 86  1  0  0  0  0
 48 87  1  0  0  0  0
 49 50  1  0  0  0  0
 49 88  1  0  0  0  0
 49 89  1  0  0  0  0
 50 51  2  0  0  0  0
 50 52  1  0  0  0  0
 52 53  1  0  0  0  0
 52 90  1  0  0  0  0
 53 54  2  0  0  0  0
 55 56  2  0  0  0  0
M  END
$$$$
protac3895RUN2
  chem.cr 07102519423D
protac3895RUN2
 90 96  0  0  0  0  0  0  0  0999 V2000
    4.4386   -1.7518   -1.0627 O   0  0  0  0  0  0  0  0  0  0  0  0
    3.4823   -0.9918   -1.1203 C   0  0  0  0  0  0  0  0  0  0  0  0
    3.5701    0.4202   -1.6678 C   0  0  0  0  0  0  0  0  0  0  0  0
    2.4190    0.8522   -2.4992 N   0  0  0  0  0  0  0  0  0  0  0  0
    1.6635   -0.1035   -3.1942 C   0  0  0  0  0  0  0  0  0  0  0  0
    0.3406    0.1450   -3.0674 C   0  0  0  0  0  0  0  0  0  0  0  0
   -0.6722   -0.7102   -3.3941 C   0  0  0  0  0  0  0  0  0  0  0  0
   -1.9945   -0.7381   -3.0593 C   0  0  0  0  0  0  0  0  0  0  0  0
   -2.7069    0.0546   -2.1668 C   0  0  0  0  0  0  0  0  0  0  0  0
   -3.9015    0.6695   -2.6114 C   0  0  0  0  0  0  0  0  0  0  0  0
   -4.7586    1.3271   -1.7095 C   0  0  0  0  0  0  0  0  0  0  0  0
   -4.4551    1.3438   -0.3424 C   0  0  0  0  0  0  0  0  0  0  0  0
   -5.5430    2.1059    0.8065 Cl  0  0  0  0  0  0  0  0  0  0  0  0
   -3.2882    0.7253    0.1186 C   0  0  0  0  0  0  0  0  0  0  0  0
   -2.4022    0.1099   -0.7825 C   0  0  0  0  0  0  0  0  0  0  0  0
   -0.9538   -0.6260   -0.1125 Cl  0  0  0  0  0  0  0  0  0  0  0  0
   -2.5903   -1.8122   -3.5909 C   0  0  0  0  0  0  0  0  0  0  0  0
   -3.7161   -2.2794   -3.4938 O   0  0  0  0  0  0  0  0  0  0  0  0
   -1.6668   -2.5167   -4.3342 N   0  0  0  0  0  0  0  0  0  0  0  0
   -0.4780   -1.8324   -4.1329 C   0  0  0  0  0  0  0  0  0  0  0  0
    0.5103   -2.3296   -4.6595 O   0  0  0  0  0  0  0  0  0  0  0  0
    0.2606    1.4117   -2.4755 C   0  0  0  0  0  0  0  0  0  0  0  0
   -0.7684    2.3715   -2.5007 C   0  0  0  0  0  0  0  0  0  0  0  0
   -0.5087    3.6719   -2.0140 C   0  0  0  0  0  0  0  0  0  0  0  0
    0.7734    4.0301   -1.5464 C   0  0  0  0  0  0  0  0  0  0  0  0
    1.8271    3.1014   -1.6059 C   0  0  0  0  0  0  0  0  0  0  0  0
    1.5402    1.8203   -2.0927 C   0  0  0  0  0  0  0  0  0  0  0  0
    2.2503   -1.3990   -0.5855 N   0  0  0  0  0  0  0  0  0  0  0  0
    1.9540   -2.7742   -0.1539 C   0  0  0  0  0  0  0  0  0  0  0  0
    1.5117   -3.6875   -1.3176 C   0  0  0  0  0  0  0  0  0  0  0  0
    0.5384   -4.6262   -0.8202 O   0  0  0  0  0  0  0  0  0  0  0  0
   -0.8342   -4.1947   -0.8770 C   0  0  0  0  0  0  0  0  0  0  0  0
   -1.5021   -4.4093    0.4994 C   0  0  0  0  0  0  0  0  0  0  0  0
   -0.9901   -3.4210    1.3992 O   0  0  0  0  0  0  0  0  0  0  0  0
   -1.6476   -3.3224    2.6674 C   0  0  0  0  0  0  0  0  0  0  0  0
   -1.0354   -2.1096    3.3927 C   0  0  0  0  0  0  0  0  0  0  0  0
    0.3592   -2.3755    3.7909 N   0  0  0  0  0  0  0  0  0  0  0  0
    1.4600   -1.6531    3.3340 C   0  0  0  0  0  0  0  0  0  0  0  0
    2.6455   -2.3640    3.0488 C   0  0  0  0  0  0  0  0  0  0  0  0
    3.7816   -1.7224    2.5046 C   0  0  0  0  0  0  0  0  0  0  0  0
    3.7529   -0.3444    2.2175 C   0  0  0  0  0  0  0  0  0  0  0  0
    2.5858    0.3678    2.5254 C   0  0  0  0  0  0  0  0  0  0  0  0
    1.4775   -0.2588    3.1046 C   0  0  0  0  0  0  0  0  0  0  0  0
    0.5437    0.7222    3.3429 C   0  0  0  0  0  0  0  0  0  0  0  0
   -0.4421    0.6947    4.0712 O   0  0  0  0  0  0  0  0  0  0  0  0
    1.0283    1.9388    2.8613 N   0  0  0  0  0  0  0  0  0  0  0  0
    0.1524    3.1082    2.6286 C   0  0  0  0  0  0  0  0  0  0  0  0
   -0.7527    2.8070    1.4208 C   0  0  0  0  0  0  0  0  0  0  0  0
   -1.7067    3.9858    1.1572 C   0  0  0  0  0  0  0  0  0  0  0  0
   -0.9462    5.2872    1.0214 C   0  0  0  0  0  0  0  0  0  0  0  0
   -1.3540    6.2394    0.3741 O   0  0  0  0  0  0  0  0  0  0  0  0
    0.2100    5.4817    1.7880 N   0  0  0  0  0  0  0  0  0  0  0  0
    0.8649    4.4497    2.4801 C   0  0  0  0  0  0  0  0  0  0  0  0
    1.7931    4.8029    3.1957 O   0  0  0  0  0  0  0  0  0  0  0  0
    2.3093    1.7066    2.3366 C   0  0  0  0  0  0  0  0  0  0  0  0
    2.7578    2.3997    1.4312 O   0  0  0  0  0  0  0  0  0  0  0  0
    3.6777    1.1098   -0.8214 H   0  0  0  0  0  0  0  0  0  0  0  0
    4.4777    0.5022   -2.2746 H   0  0  0  0  0  0  0  0  0  0  0  0
    2.1783   -0.9836   -3.5766 H   0  0  0  0  0  0  0  0  0  0  0  0
   -4.1796    0.6083   -3.6593 H   0  0  0  0  0  0  0  0  0  0  0  0
   -5.6768    1.7879   -2.0653 H   0  0  0  0  0  0  0  0  0  0  0  0
   -3.0837    0.7004    1.1832 H   0  0  0  0  0  0  0  0  0  0  0  0
   -1.7272   -3.5001   -4.5475 H   0  0  0  0  0  0  0  0  0  0  0  0
   -1.7266    2.1645   -2.9600 H   0  0  0  0  0  0  0  0  0  0  0  0
   -1.2978    4.4196   -2.0346 H   0  0  0  0  0  0  0  0  0  0  0  0
    0.9638    5.0395   -1.1904 H   0  0  0  0  0  0  0  0  0  0  0  0
    2.8373    3.3859   -1.3270 H   0  0  0  0  0  0  0  0  0  0  0  0
    1.4945   -0.7188   -0.5949 H   0  0  0  0  0  0  0  0  0  0  0  0
    1.1726   -2.7311    0.6116 H   0  0  0  0  0  0  0  0  0  0  0  0
    2.8436   -3.2133    0.3162 H   0  0  0  0  0  0  0  0  0  0  0  0
    2.3906   -4.2150   -1.7125 H   0  0  0  0  0  0  0  0  0  0  0  0
    1.0946   -3.0895   -2.1396 H   0  0  0  0  0  0  0  0  0  0  0  0
   -1.3693   -4.7856   -1.6313 H   0  0  0  0  0  0  0  0  0  0  0  0
   -0.9200   -3.1414   -1.1683 H   0  0  0  0  0  0  0  0  0  0  0  0
   -1.3021   -5.4238    0.8663 H   0  0  0  0  0  0  0  0  0  0  0  0
   -2.5850   -4.2881    0.3775 H   0  0  0  0  0  0  0  0  0  0  0  0
   -2.7241   -3.1476    2.5306 H   0  0  0  0  0  0  0  0  0  0  0  0
   -1.5113   -4.2350    3.2623 H   0  0  0  0  0  0  0  0  0  0  0  0
   -1.0883   -1.2520    2.7117 H   0  0  0  0  0  0  0  0  0  0  0  0
   -1.6294   -1.8657    4.2825 H   0  0  0  0  0  0  0  0  0  0  0  0
    0.5593   -3.3275    4.0681 H   0  0  0  0  0  0  0  0  0  0  0  0
    2.6807   -3.4354    3.2248 H   0  0  0  0  0  0  0  0  0  0  0  0
    4.6742   -2.3004    2.2757 H   0  0  0  0  0  0  0  0  0  0  0  0
    4.6110    0.1520    1.7715 H   0  0  0  0  0  0  0  0  0  0  0  0
   -0.4843    3.2061    3.5179 H   0  0  0  0  0  0  0  0  0  0  0  0
   -1.3200    1.8949    1.6173 H   0  0  0  0  0  0  0  0  0  0  0  0
   -0.1311    2.6078    0.5405 H   0  0  0  0  0  0  0  0  0  0  0  0
   -2.2928    3.7997    0.2474 H   0  0  0  0  0  0  0  0  0  0  0  0
   -2.4280    4.0778    1.9757 H   0  0  0  0  0  0  0  0  0  0  0  0
    0.6367    6.3981    1.7877 H   0  0  0  0  0  0  0  0  0  0  0  0
  1  2  2  0  0  0  0
  2  3  1  0  0  0  0
  2 28  1  0  0  0  0
  3  4  1  0  0  0  0
  3 57  1  0  0  0  0
  3 58  1  0  0  0  0
  4  5  1  0  0  0  0
  4 27  1  0  0  0  0
  5  6  2  0  0  0  0
  5 59  1  0  0  0  0
  6  7  1  0  0  0  0
  6 22  1  0  0  0  0
  7  8  2  0  0  0  0
  7 20  1  0  0  0  0
  8  9  1  0  0  0  0
  8 17  1  0  0  0  0
  9 10  2  0  0  0  0
  9 15  1  0  0  0  0
 10 11  1  0  0  0  0
 10 60  1  0  0  0  0
 11 12  2  0  0  0  0
 11 61  1  0  0  0  0
 12 13  1  0  0  0  0
 12 14  1  0  0  0  0
 14 15  2  0  0  0  0
 14 62  1  0  0  0  0
 15 16  1  0  0  0  0
 17 18  2  0  0  0  0
 17 19  1  0  0  0  0
 19 20  1  0  0  0  0
 19 63  1  0  0  0  0
 20 21  2  0  0  0  0
 22 23  2  0  0  0  0
 22 27  1  0  0  0  0
 23 24  1  0  0  0  0
 23 64  1  0  0  0  0
 24 25  2  0  0  0  0
 24 65  1  0  0  0  0
 25 26  1  0  0  0  0
 25 66  1  0  0  0  0
 26 27  2  0  0  0  0
 26 67  1  0  0  0  0
 28 29  1  0  0  0  0
 28 68  1  0  0  0  0
 29 30  1  0  0  0  0
 29 69  1  0  0  0  0
 29 70  1  0  0  0  0
 30 31  1  0  0  0  0
 30 71  1  0  0  0  0
 30 72  1  0  0  0  0
 31 32  1  0  0  0  0
 32 33  1  0  0  0  0
 32 73  1  0  0  0  0
 32 74  1  0  0  0  0
 33 34  1  0  0  0  0
 33 75  1  0  0  0  0
 33 76  1  0  0  0  0
 34 35  1  0  0  0  0
 35 36  1  0  0  0  0
 35 77  1  0  0  0  0
 35 78  1  0  0  0  0
 36 37  1  0  0  0  0
 36 79  1  0  0  0  0
 36 80  1  0  0  0  0
 37 38  1  0  0  0  0
 37 81  1  0  0  0  0
 38 39  2  0  0  0  0
 38 43  1  0  0  0  0
 39 40  1  0  0  0  0
 39 82  1  0  0  0  0
 40 41  2  0  0  0  0
 40 83  1  0  0  0  0
 41 42  1  0  0  0  0
 41 84  1  0  0  0  0
 42 43  2  0  0  0  0
 42 55  1  0  0  0  0
 43 44  1  0  0  0  0
 44 45  2  0  0  0  0
 44 46  1  0  0  0  0
 46 47  1  0  0  0  0
 46 55  1  0  0  0  0
 47 48  1  0  0  0  0
 47 53  1  0  0  0  0
 47 85  1  0  0  0  0
 48 49  1  0  0  0  0
 48 86  1  0  0  0  0
 48 87  1  0  0  0  0
 49 50  1  0  0  0  0
 49 88  1  0  0  0  0
 49 89  1  0  0  0  0
 50 51  2  0  0  0  0
 50 52  1  0  0  0  0
 52 53  1  0  0  0  0
 52 90  1  0  0  0  0
 53 54  2  0  0  0  0
 55 56  2  0  0  0  0
M  END
$$$$
protac3895RUN2
  chem.cr 07102519423D
protac3895RUN2
 90 96  0  0  0  0  0  0  0  0999 V2000
   -2.5797   -3.0433    2.7960 O   0  0  0  0  0  0  0  0  0  0  0  0
   -2.0447   -2.1752    2.1189 C   0  0  0  0  0  0  0  0  0  0  0  0
   -2.8244   -1.0987    1.4033 C   0  0  0  0  0  0  0  0  0  0  0  0
   -3.7582   -1.6193    0.3897 N   0  0  0  0  0  0  0  0  0  0  0  0
   -5.0008   -2.1311    0.7993 C   0  0  0  0  0  0  0  0  0  0  0  0
   -5.9836   -1.7489   -0.0465 C   0  0  0  0  0  0  0  0  0  0  0  0
   -7.3315   -1.8838    0.1631 C   0  0  0  0  0  0  0  0  0  0  0  0
   -8.4032   -1.2838   -0.4209 C   0  0  0  0  0  0  0  0  0  0  0  0
   -8.4096   -0.2398   -1.3321 C   0  0  0  0  0  0  0  0  0  0  0  0
   -9.0997   -0.3946   -2.5552 C   0  0  0  0  0  0  0  0  0  0  0  0
   -9.1101    0.6406   -3.5068 C   0  0  0  0  0  0  0  0  0  0  0  0
   -8.4505    1.8486   -3.2332 C   0  0  0  0  0  0  0  0  0  0  0  0
   -8.4539    3.1416   -4.4246 Cl  0  0  0  0  0  0  0  0  0  0  0  0
   -7.8080    2.0363   -2.0000 C   0  0  0  0  0  0  0  0  0  0  0  0
   -7.7991    1.0073   -1.0432 C   0  0  0  0  0  0  0  0  0  0  0  0
   -7.0416    1.3316    0.5192 Cl  0  0  0  0  0  0  0  0  0  0  0  0
   -9.5483   -1.7057    0.1269 C   0  0  0  0  0  0  0  0  0  0  0  0
  -10.7200   -1.3894   -0.0296 O   0  0  0  0  0  0  0  0  0  0  0  0
   -9.2532   -2.6413    1.1003 N   0  0  0  0  0  0  0  0  0  0  0  0
   -7.8619   -2.6702    1.1323 C   0  0  0  0  0  0  0  0  0  0  0  0
   -7.3690   -3.3985    1.9849 O   0  0  0  0  0  0  0  0  0  0  0  0
   -5.3214   -1.1261   -1.1156 C   0  0  0  0  0  0  0  0  0  0  0  0
   -5.7202   -0.8828   -2.4444 C   0  0  0  0  0  0  0  0  0  0  0  0
   -4.8027   -0.3201   -3.3563 C   0  0  0  0  0  0  0  0  0  0  0  0
   -3.4627   -0.0900   -2.9811 C   0  0  0  0  0  0  0  0  0  0  0  0
   -3.0193   -0.4748   -1.7035 C   0  0  0  0  0  0  0  0  0  0  0  0
   -3.9657   -0.9968   -0.8107 C   0  0  0  0  0  0  0  0  0  0  0  0
   -0.6784   -1.9200    2.3243 N   0  0  0  0  0  0  0  0  0  0  0  0
    0.1009   -2.6292    3.3517 C   0  0  0  0  0  0  0  0  0  0  0  0
    1.4494   -1.9563    3.6593 C   0  0  0  0  0  0  0  0  0  0  0  0
    1.9168   -2.5590    4.8738 O   0  0  0  0  0  0  0  0  0  0  0  0
    3.1575   -2.0716    5.4095 C   0  0  0  0  0  0  0  0  0  0  0  0
    4.3386   -2.6218    4.5705 C   0  0  0  0  0  0  0  0  0  0  0  0
    4.6611   -1.7249    3.4933 O   0  0  0  0  0  0  0  0  0  0  0  0
    5.3614   -0.5254    3.8640 C   0  0  0  0  0  0  0  0  0  0  0  0
    5.7593    0.2076    2.5702 C   0  0  0  0  0  0  0  0  0  0  0  0
    6.6281   -0.6427    1.7411 N   0  0  0  0  0  0  0  0  0  0  0  0
    6.5141   -0.7655    0.3584 C   0  0  0  0  0  0  0  0  0  0  0  0
    6.6735   -2.0535   -0.2018 C   0  0  0  0  0  0  0  0  0  0  0  0
    6.5556   -2.2776   -1.5929 C   0  0  0  0  0  0  0  0  0  0  0  0
    6.2867   -1.2072   -2.4652 C   0  0  0  0  0  0  0  0  0  0  0  0
    6.1463    0.0707   -1.9126 C   0  0  0  0  0  0  0  0  0  0  0  0
    6.2529    0.3001   -0.5337 C   0  0  0  0  0  0  0  0  0  0  0  0
    6.0777    1.6580   -0.3402 C   0  0  0  0  0  0  0  0  0  0  0  0
    6.2787    2.3376    0.6586 O   0  0  0  0  0  0  0  0  0  0  0  0
    5.8293    2.2584   -1.5779 N   0  0  0  0  0  0  0  0  0  0  0  0
    5.6083    3.6994   -1.8074 C   0  0  0  0  0  0  0  0  0  0  0  0
    4.1239    3.9569   -2.1397 C   0  0  0  0  0  0  0  0  0  0  0  0
    3.9007    5.4588   -2.4117 C   0  0  0  0  0  0  0  0  0  0  0  0
    4.8546    5.9893   -3.4577 C   0  0  0  0  0  0  0  0  0  0  0  0
    4.6250    6.9833   -4.1287 O   0  0  0  0  0  0  0  0  0  0  0  0
    6.1532    5.4687   -3.5153 N   0  0  0  0  0  0  0  0  0  0  0  0
    6.5368    4.2855   -2.8659 C   0  0  0  0  0  0  0  0  0  0  0  0
    7.7167    3.9824   -2.9768 O   0  0  0  0  0  0  0  0  0  0  0  0
    5.9033    1.2624   -2.5530 C   0  0  0  0  0  0  0  0  0  0  0  0
    5.4632    1.4224   -3.6866 O   0  0  0  0  0  0  0  0  0  0  0  0
   -3.4046   -0.5417    2.1476 H   0  0  0  0  0  0  0  0  0  0  0  0
   -2.1389   -0.3924    0.9244 H   0  0  0  0  0  0  0  0  0  0  0  0
   -5.0656   -2.6186    1.7706 H   0  0  0  0  0  0  0  0  0  0  0  0
   -9.6129   -1.3286   -2.7705 H   0  0  0  0  0  0  0  0  0  0  0  0
   -9.6274    0.5062   -4.4531 H   0  0  0  0  0  0  0  0  0  0  0  0
   -7.3241    2.9837   -1.7787 H   0  0  0  0  0  0  0  0  0  0  0  0
   -9.8348   -2.8248    1.9031 H   0  0  0  0  0  0  0  0  0  0  0  0
   -6.6965   -1.1724   -2.8008 H   0  0  0  0  0  0  0  0  0  0  0  0
   -5.1229   -0.1015   -4.3714 H   0  0  0  0  0  0  0  0  0  0  0  0
   -2.7604    0.3201   -3.7010 H   0  0  0  0  0  0  0  0  0  0  0  0
   -1.9699   -0.4054   -1.4352 H   0  0  0  0  0  0  0  0  0  0  0  0
   -0.2374   -1.1750    1.8018 H   0  0  0  0  0  0  0  0  0  0  0  0
    0.2712   -3.6642    3.0255 H   0  0  0  0  0  0  0  0  0  0  0  0
   -0.4929   -2.6696    4.2760 H   0  0  0  0  0  0  0  0  0  0  0  0
    1.3055   -0.8769    3.8004 H   0  0  0  0  0  0  0  0  0  0  0  0
    2.1513   -2.1173    2.8300 H   0  0  0  0  0  0  0  0  0  0  0  0
    3.2681   -2.4403    6.4368 H   0  0  0  0  0  0  0  0  0  0  0  0
    3.1657   -0.9764    5.4540 H   0  0  0  0  0  0  0  0  0  0  0  0
    4.0631   -3.6071    4.1722 H   0  0  0  0  0  0  0  0  0  0  0  0
    5.2116   -2.7648    5.2207 H   0  0  0  0  0  0  0  0  0  0  0  0
    4.7291    0.1349    4.4701 H   0  0  0  0  0  0  0  0  0  0  0  0
    6.2653   -0.7625    4.4412 H   0  0  0  0  0  0  0  0  0  0  0  0
    4.8532    0.4854    2.0150 H   0  0  0  0  0  0  0  0  0  0  0  0
    6.2929    1.1306    2.8352 H   0  0  0  0  0  0  0  0  0  0  0  0
    7.0149   -1.4491    2.2121 H   0  0  0  0  0  0  0  0  0  0  0  0
    6.8745   -2.8979    0.4510 H   0  0  0  0  0  0  0  0  0  0  0  0
    6.6745   -3.2813   -1.9934 H   0  0  0  0  0  0  0  0  0  0  0  0
    6.1982   -1.3593   -3.5386 H   0  0  0  0  0  0  0  0  0  0  0  0
    5.8469    4.2271   -0.8753 H   0  0  0  0  0  0  0  0  0  0  0  0
    3.4868    3.6076   -1.3161 H   0  0  0  0  0  0  0  0  0  0  0  0
    3.8433    3.3797   -3.0319 H   0  0  0  0  0  0  0  0  0  0  0  0
    2.8694    5.6280   -2.7450 H   0  0  0  0  0  0  0  0  0  0  0  0
    4.0298    6.0346   -1.4871 H   0  0  0  0  0  0  0  0  0  0  0  0
    6.8219    5.9136   -4.1259 H   0  0  0  0  0  0  0  0  0  0  0  0
  1  2  2  0  0  0  0
  2  3  1  0  0  0  0
  2 28  1  0  0  0  0
  3  4  1  0  0  0  0
  3 57  1  0  0  0  0
  3 58  1  0  0  0  0
  4  5  1  0  0  0  0
  4 27  1  0  0  0  0
  5  6  2  0  0  0  0
  5 59  1  0  0  0  0
  6  7  1  0  0  0  0
  6 22  1  0  0  0  0
  7  8  2  0  0  0  0
  7 20  1  0  0  0  0
  8  9  1  0  0  0  0
  8 17  1  0  0  0  0
  9 10  2  0  0  0  0
  9 15  1  0  0  0  0
 10 11  1  0  0  0  0
 10 60  1  0  0  0  0
 11 12  2  0  0  0  0
 11 61  1  0  0  0  0
 12 13  1  0  0  0  0
 12 14  1  0  0  0  0
 14 15  2  0  0  0  0
 14 62  1  0  0  0  0
 15 16  1  0  0  0  0
 17 18  2  0  0  0  0
 17 19  1  0  0  0  0
 19 20  1  0  0  0  0
 19 63  1  0  0  0  0
 20 21  2  0  0  0  0
 22 23  2  0  0  0  0
 22 27  1  0  0  0  0
 23 24  1  0  0  0  0
 23 64  1  0  0  0  0
 24 25  2  0  0  0  0
 24 65  1  0  0  0  0
 25 26  1  0  0  0  0
 25 66  1  0  0  0  0
 26 27  2  0  0  0  0
 26 67  1  0  0  0  0
 28 29  1  0  0  0  0
 28 68  1  0  0  0  0
 29 30  1  0  0  0  0
 29 69  1  0  0  0  0
 29 70  1  0  0  0  0
 30 31  1  0  0  0  0
 30 71  1  0  0  0  0
 30 72  1  0  0  0  0
 31 32  1  0  0  0  0
 32 33  1  0  0  0  0
 32 73  1  0  0  0  0
 32 74  1  0  0  0  0
 33 34  1  0  0  0  0
 33 75  1  0  0  0  0
 33 76  1  0  0  0  0
 34 35  1  0  0  0  0
 35 36  1  0  0  0  0
 35 77  1  0  0  0  0
 35 78  1  0  0  0  0
 36 37  1  0  0  0  0
 36 79  1  0  0  0  0
 36 80  1  0  0  0  0
 37 38  1  0  0  0  0
 37 81  1  0  0  0  0
 38 39  2  0  0  0  0
 38 43  1  0  0  0  0
 39 40  1  0  0  0  0
 39 82  1  0  0  0  0
 40 41  2  0  0  0  0
 40 83  1  0  0  0  0
 41 42  1  0  0  0  0
 41 84  1  0  0  0  0
 42 43  2  0  0  0  0
 42 55  1  0  0  0  0
 43 44  1  0  0  0  0
 44 45  2  0  0  0  0
 44 46  1  0  0  0  0
 46 47  1  0  0  0  0
 46 55  1  0  0  0  0
 47 48  1  0  0  0  0
 47 53  1  0  0  0  0
 47 85  1  0  0  0  0
 48 49  1  0  0  0  0
 48 86  1  0  0  0  0
 48 87  1  0  0  0  0
 49 50  1  0  0  0  0
 49 88  1  0  0  0  0
 49 89  1  0  0  0  0
 50 51  2  0  0  0  0
 50 52  1  0  0  0  0
 52 53  1  0  0  0  0
 52 90  1  0  0  0  0
 53 54  2  0  0  0  0
 55 56  2  0  0  0  0
M  END
$$$$
protac3895RUN2
  chem.cr 07102519423D
protac3895RUN2
 90 96  0  0  0  0  0  0  0  0999 V2000
   -3.5635   -2.5555    4.8263 O   0  0  0  0  0  0  0  0  0  0  0  0
   -3.7698   -2.1004    3.7098 C   0  0  0  0  0  0  0  0  0  0  0  0
   -5.1001   -1.5169    3.3054 C   0  0  0  0  0  0  0  0  0  0  0  0
   -5.5302   -1.8836    1.9448 N   0  0  0  0  0  0  0  0  0  0  0  0
   -6.4722   -2.9008    1.7474 C   0  0  0  0  0  0  0  0  0  0  0  0
   -7.2716   -2.6242    0.6915 C   0  0  0  0  0  0  0  0  0  0  0  0
   -8.4190   -3.3012    0.3624 C   0  0  0  0  0  0  0  0  0  0  0  0
   -9.4581   -3.0049   -0.4688 C   0  0  0  0  0  0  0  0  0  0  0  0
   -9.6916   -1.8435   -1.1824 C   0  0  0  0  0  0  0  0  0  0  0  0
   -9.8502   -1.9207   -2.5844 C   0  0  0  0  0  0  0  0  0  0  0  0
  -10.1050   -0.7636   -3.3400 C   0  0  0  0  0  0  0  0  0  0  0  0
  -10.2225    0.4787   -2.6996 C   0  0  0  0  0  0  0  0  0  0  0  0
  -10.5394    1.9281   -3.6432 Cl  0  0  0  0  0  0  0  0  0  0  0  0
  -10.1100    0.5630   -1.3030 C   0  0  0  0  0  0  0  0  0  0  0  0
   -9.8598   -0.5919   -0.5416 C   0  0  0  0  0  0  0  0  0  0  0  0
   -9.7941   -0.4387    1.2155 Cl  0  0  0  0  0  0  0  0  0  0  0  0
  -10.3775   -3.9763   -0.4609 C   0  0  0  0  0  0  0  0  0  0  0  0
  -11.4533   -4.1226   -1.0273 O   0  0  0  0  0  0  0  0  0  0  0  0
   -9.9744   -4.9509    0.4274 N   0  0  0  0  0  0  0  0  0  0  0  0
   -8.7526   -4.4983    0.9090 C   0  0  0  0  0  0  0  0  0  0  0  0
   -8.1912   -5.2453    1.7018 O   0  0  0  0  0  0  0  0  0  0  0  0
   -6.7185   -1.4676    0.1120 C   0  0  0  0  0  0  0  0  0  0  0  0
   -6.8408   -0.9089   -1.1754 C   0  0  0  0  0  0  0  0  0  0  0  0
   -6.0934    0.2407   -1.5124 C   0  0  0  0  0  0  0  0  0  0  0  0
   -5.1573    0.7840   -0.6077 C   0  0  0  0  0  0  0  0  0  0  0  0
   -4.9175    0.1410    0.6192 C   0  0  0  0  0  0  0  0  0  0  0  0
   -5.6969   -0.9810    0.9318 C   0  0  0  0  0  0  0  0  0  0  0  0
   -2.6653   -1.7224    2.9324 N   0  0  0  0  0  0  0  0  0  0  0  0
   -1.3642   -1.4063    3.5414 C   0  0  0  0  0  0  0  0  0  0  0  0
   -0.2930   -1.0077    2.5136 C   0  0  0  0  0  0  0  0  0  0  0  0
    0.7407   -0.3445    3.2548 O   0  0  0  0  0  0  0  0  0  0  0  0
    1.9075    0.0498    2.5183 C   0  0  0  0  0  0  0  0  0  0  0  0
    2.8504   -1.1683    2.3888 C   0  0  0  0  0  0  0  0  0  0  0  0
    4.0781   -0.7461    1.7702 O   0  0  0  0  0  0  0  0  0  0  0  0
    5.0033   -0.0332    2.6099 C   0  0  0  0  0  0  0  0  0  0  0  0
    6.1382    0.4900    1.7133 C   0  0  0  0  0  0  0  0  0  0  0  0
    6.8650   -0.6198    1.0814 N   0  0  0  0  0  0  0  0  0  0  0  0
    7.3656   -0.6178   -0.2198 C   0  0  0  0  0  0  0  0  0  0  0  0
    7.4415   -1.8646   -0.8812 C   0  0  0  0  0  0  0  0  0  0  0  0
    7.9014   -1.9755   -2.2129 C   0  0  0  0  0  0  0  0  0  0  0  0
    8.3020   -0.8299   -2.9218 C   0  0  0  0  0  0  0  0  0  0  0  0
    8.2407    0.4041   -2.2647 C   0  0  0  0  0  0  0  0  0  0  0  0
    7.7922    0.5238   -0.9416 C   0  0  0  0  0  0  0  0  0  0  0  0
    7.8758    1.8641   -0.6056 C   0  0  0  0  0  0  0  0  0  0  0  0
    7.9771    2.3637    0.5082 O   0  0  0  0  0  0  0  0  0  0  0  0
    8.3218    2.5751   -1.7259 N   0  0  0  0  0  0  0  0  0  0  0  0
    8.6870    4.0076   -1.7410 C   0  0  0  0  0  0  0  0  0  0  0  0
    7.7453    4.7955   -2.6759 C   0  0  0  0  0  0  0  0  0  0  0  0
    8.1383    6.2882   -2.6702 C   0  0  0  0  0  0  0  0  0  0  0  0
    9.6094    6.4914   -2.9637 C   0  0  0  0  0  0  0  0  0  0  0  0
   10.0653    7.5389   -3.3950 O   0  0  0  0  0  0  0  0  0  0  0  0
   10.5288    5.5252   -2.5354 N   0  0  0  0  0  0  0  0  0  0  0  0
   10.1489    4.2474   -2.0995 C   0  0  0  0  0  0  0  0  0  0  0  0
   11.0646    3.5014   -1.7786 O   0  0  0  0  0  0  0  0  0  0  0  0
    8.5791    1.6487   -2.7384 C   0  0  0  0  0  0  0  0  0  0  0  0
    8.7560    1.9818   -3.9048 O   0  0  0  0  0  0  0  0  0  0  0  0
   -5.8584   -1.8531    4.0221 H   0  0  0  0  0  0  0  0  0  0  0  0
   -5.0476   -0.4256    3.3857 H   0  0  0  0  0  0  0  0  0  0  0  0
   -6.5511   -3.6831    2.4982 H   0  0  0  0  0  0  0  0  0  0  0  0
   -9.7674   -2.8824   -3.0844 H   0  0  0  0  0  0  0  0  0  0  0  0
  -10.2180   -0.8322   -4.4191 H   0  0  0  0  0  0  0  0  0  0  0  0
  -10.2267    1.5220   -0.8074 H   0  0  0  0  0  0  0  0  0  0  0  0
  -10.2785   -5.9117    0.4203 H   0  0  0  0  0  0  0  0  0  0  0  0
   -7.4496   -1.3678   -1.9374 H   0  0  0  0  0  0  0  0  0  0  0  0
   -6.2168    0.6895   -2.4949 H   0  0  0  0  0  0  0  0  0  0  0  0
   -4.5761    1.6580   -0.8876 H   0  0  0  0  0  0  0  0  0  0  0  0
   -4.1329    0.4865    1.2847 H   0  0  0  0  0  0  0  0  0  0  0  0
   -2.8178   -1.5366    1.9488 H   0  0  0  0  0  0  0  0  0  0  0  0
   -1.0114   -2.2749    4.1154 H   0  0  0  0  0  0  0  0  0  0  0  0
   -1.5057   -0.5810    4.2530 H   0  0  0  0  0  0  0  0  0  0  0  0
   -0.7224   -0.3232    1.7699 H   0  0  0  0  0  0  0  0  0  0  0  0
    0.0808   -1.9017    1.9971 H   0  0  0  0  0  0  0  0  0  0  0  0
    2.4157    0.8554    3.0595 H   0  0  0  0  0  0  0  0  0  0  0  0
    1.6439    0.4301    1.5219 H   0  0  0  0  0  0  0  0  0  0  0  0
    2.3699   -1.9351    1.7699 H   0  0  0  0  0  0  0  0  0  0  0  0
    3.0402   -1.6012    3.3804 H   0  0  0  0  0  0  0  0  0  0  0  0
    4.5274    0.8249    3.1013 H   0  0  0  0  0  0  0  0  0  0  0  0
    5.4125   -0.6905    3.3888 H   0  0  0  0  0  0  0  0  0  0  0  0
    5.7065    1.1472    0.9463 H   0  0  0  0  0  0  0  0  0  0  0  0
    6.8331    1.0841    2.3217 H   0  0  0  0  0  0  0  0  0  0  0  0
    6.7029   -1.5329    1.4826 H   0  0  0  0  0  0  0  0  0  0  0  0
    7.1237   -2.7631   -0.3606 H   0  0  0  0  0  0  0  0  0  0  0  0
    7.9432   -2.9506   -2.6916 H   0  0  0  0  0  0  0  0  0  0  0  0
    8.6565   -0.8954   -3.9477 H   0  0  0  0  0  0  0  0  0  0  0  0
    8.5564    4.3990   -0.7238 H   0  0  0  0  0  0  0  0  0  0  0  0
    6.7010    4.6627   -2.3634 H   0  0  0  0  0  0  0  0  0  0  0  0
    7.8283    4.4026   -3.6987 H   0  0  0  0  0  0  0  0  0  0  0  0
    7.5442    6.8346   -3.4135 H   0  0  0  0  0  0  0  0  0  0  0  0
    7.9080    6.7347   -1.6949 H   0  0  0  0  0  0  0  0  0  0  0  0
   11.5132    5.7137   -2.6525 H   0  0  0  0  0  0  0  0  0  0  0  0
  1  2  2  0  0  0  0
  2  3  1  0  0  0  0
  2 28  1  0  0  0  0
  3  4  1  0  0  0  0
  3 57  1  0  0  0  0
  3 58  1  0  0  0  0
  4  5  1  0  0  0  0
  4 27  1  0  0  0  0
  5  6  2  0  0  0  0
  5 59  1  0  0  0  0
  6  7  1  0  0  0  0
  6 22  1  0  0  0  0
  7  8  2  0  0  0  0
  7 20  1  0  0  0  0
  8  9  1  0  0  0  0
  8 17  1  0  0  0  0
  9 10  2  0  0  0  0
  9 15  1  0  0  0  0
 10 11  1  0  0  0  0
 10 60  1  0  0  0  0
 11 12  2  0  0  0  0
 11 61  1  0  0  0  0
 12 13  1  0  0  0  0
 12 14  1  0  0  0  0
 14 15  2  0  0  0  0
 14 62  1  0  0  0  0
 15 16  1  0  0  0  0
 17 18  2  0  0  0  0
 17 19  1  0  0  0  0
 19 20  1  0  0  0  0
 19 63  1  0  0  0  0
 20 21  2  0  0  0  0
 22 23  2  0  0  0  0
 22 27  1  0  0  0  0
 23 24  1  0  0  0  0
 23 64  1  0  0  0  0
 24 25  2  0  0  0  0
 24 65  1  0  0  0  0
 25 26  1  0  0  0  0
 25 66  1  0  0  0  0
 26 27  2  0  0  0  0
 26 67  1  0  0  0  0
 28 29  1  0  0  0  0
 28 68  1  0  0  0  0
 29 30  1  0  0  0  0
 29 69  1  0  0  0  0
 29 70  1  0  0  0  0
 30 31  1  0  0  0  0
 30 71  1  0  0  0  0
 30 72  1  0  0  0  0
 31 32  1  0  0  0  0
 32 33  1  0  0  0  0
 32 73  1  0  0  0  0
 32 74  1  0  0  0  0
 33 34  1  0  0  0  0
 33 75  1  0  0  0  0
 33 76  1  0  0  0  0
 34 35  1  0  0  0  0
 35 36  1  0  0  0  0
 35 77  1  0  0  0  0
 35 78  1  0  0  0  0
 36 37  1  0  0  0  0
 36 79  1  0  0  0  0
 36 80  1  0  0  0  0
 37 38  1  0  0  0  0
 37 81  1  0  0  0  0
 38 39  2  0  0  0  0
 38 43  1  0  0  0  0
 39 40  1  0  0  0  0
 39 82  1  0  0  0  0
 40 41  2  0  0  0  0
 40 83  1  0  0  0  0
 41 42  1  0  0  0  0
 41 84  1  0  0  0  0
 42 43  2  0  0  0  0
 42 55  1  0  0  0  0
 43 44  1  0  0  0  0
 44 45  2  0  0  0  0
 44 46  1  0  0  0  0
 46 47  1  0  0  0  0
 46 55  1  0  0  0  0
 47 48  1  0  0  0  0
 47 53  1  0  0  0  0
 47 85  1  0  0  0  0
 48 49  1  0  0  0  0
 48 86  1  0  0  0  0
 48 87  1  0  0  0  0
 49 50  1  0  0  0  0
 49 88  1  0  0  0  0
 49 89  1  0  0  0  0
 50 51  2  0  0  0  0
 50 52  1  0  0  0  0
 52 53  1  0  0  0  0
 52 90  1  0  0  0  0
 53 54  2  0  0  0  0
 55 56  2  0  0  0  0
M  END
$$$$
protac3895RUN2
  chem.cr 07102519423D
protac3895RUN2
 90 96  0  0  0  0  0  0  0  0999 V2000
   -2.4303   -3.0061    0.7953 O   0  0  0  0  0  0  0  0  0  0  0  0
   -1.2080   -2.9421    0.7660 C   0  0  0  0  0  0  0  0  0  0  0  0
   -0.3435   -3.1133    1.9877 C   0  0  0  0  0  0  0  0  0  0  0  0
    0.6652   -4.1754    1.8597 N   0  0  0  0  0  0  0  0  0  0  0  0
    0.3075   -5.5238    1.8060 C   0  0  0  0  0  0  0  0  0  0  0  0
    1.2361   -6.2405    1.1316 C   0  0  0  0  0  0  0  0  0  0  0  0
    1.1539   -7.5493    0.7428 C   0  0  0  0  0  0  0  0  0  0  0  0
    0.2415   -8.4596    1.1710 C   0  0  0  0  0  0  0  0  0  0  0  0
   -0.7279   -8.2632    2.1353 C   0  0  0  0  0  0  0  0  0  0  0  0
   -2.0724   -8.0934    1.7493 C   0  0  0  0  0  0  0  0  0  0  0  0
   -3.0689   -7.8788    2.7174 C   0  0  0  0  0  0  0  0  0  0  0  0
   -2.7310   -7.8472    4.0794 C   0  0  0  0  0  0  0  0  0  0  0  0
   -3.9822   -7.6029    5.2902 Cl  0  0  0  0  0  0  0  0  0  0  0  0
   -1.3967   -8.0289    4.4762 C   0  0  0  0  0  0  0  0  0  0  0  0
   -0.3962   -8.2350    3.5100 C   0  0  0  0  0  0  0  0  0  0  0  0
    1.2680   -8.4666    4.0465 Cl  0  0  0  0  0  0  0  0  0  0  0  0
    0.3888   -9.6366    0.5590 C   0  0  0  0  0  0  0  0  0  0  0  0
   -0.2118  -10.6996    0.6241 O   0  0  0  0  0  0  0  0  0  0  0  0
    1.4668   -9.5382   -0.3000 N   0  0  0  0  0  0  0  0  0  0  0  0
    1.8884   -8.2161   -0.1851 C   0  0  0  0  0  0  0  0  0  0  0  0
    2.7451   -7.8831   -0.9958 O   0  0  0  0  0  0  0  0  0  0  0  0
    2.2681   -5.3235    0.8451 C   0  0  0  0  0  0  0  0  0  0  0  0
    3.6139   -5.5126    0.4622 C   0  0  0  0  0  0  0  0  0  0  0  0
    4.4622   -4.3910    0.3336 C   0  0  0  0  0  0  0  0  0  0  0  0
    4.0039   -3.0940    0.6456 C   0  0  0  0  0  0  0  0  0  0  0  0
    2.7026   -2.9137    1.1436 C   0  0  0  0  0  0  0  0  0  0  0  0
    1.8786   -4.0435    1.2447 C   0  0  0  0  0  0  0  0  0  0  0  0
   -0.5696   -2.4964   -0.3983 N   0  0  0  0  0  0  0  0  0  0  0  0
   -1.2964   -1.9464   -1.5520 C   0  0  0  0  0  0  0  0  0  0  0  0
   -0.4828   -0.8821   -2.3133 C   0  0  0  0  0  0  0  0  0  0  0  0
    0.6209   -1.5347   -2.9681 O   0  0  0  0  0  0  0  0  0  0  0  0
    1.9230   -1.4115   -2.3621 C   0  0  0  0  0  0  0  0  0  0  0  0
    2.5472   -0.0562   -2.7704 C   0  0  0  0  0  0  0  0  0  0  0  0
    2.0442    0.9680   -1.8988 O   0  0  0  0  0  0  0  0  0  0  0  0
    1.5871    2.1596   -2.5511 C   0  0  0  0  0  0  0  0  0  0  0  0
    1.0944    3.1064   -1.4474 C   0  0  0  0  0  0  0  0  0  0  0  0
    0.4169    4.2840   -2.0146 N   0  0  0  0  0  0  0  0  0  0  0  0
    0.9250    5.5713   -1.8989 C   0  0  0  0  0  0  0  0  0  0  0  0
    2.2981    5.8672   -2.0588 C   0  0  0  0  0  0  0  0  0  0  0  0
    2.7821    7.1892   -1.8945 C   0  0  0  0  0  0  0  0  0  0  0  0
    1.9015    8.2377   -1.5547 C   0  0  0  0  0  0  0  0  0  0  0  0
    0.5461    7.9285   -1.4011 C   0  0  0  0  0  0  0  0  0  0  0  0
    0.0698    6.6320   -1.5825 C   0  0  0  0  0  0  0  0  0  0  0  0
   -1.2778    6.6377   -1.3151 C   0  0  0  0  0  0  0  0  0  0  0  0
   -2.0846    5.7193   -1.4340 O   0  0  0  0  0  0  0  0  0  0  0  0
   -1.6675    7.9286   -0.9437 N   0  0  0  0  0  0  0  0  0  0  0  0
   -2.7897    8.1884   -0.0187 C   0  0  0  0  0  0  0  0  0  0  0  0
   -3.7134    9.2856   -0.5904 C   0  0  0  0  0  0  0  0  0  0  0  0
   -4.7757    9.6770    0.4566 C   0  0  0  0  0  0  0  0  0  0  0  0
   -4.1241   10.1131    1.7485 C   0  0  0  0  0  0  0  0  0  0  0  0
   -4.6200   10.9235    2.5150 O   0  0  0  0  0  0  0  0  0  0  0  0
   -2.9872    9.4284    2.1853 N   0  0  0  0  0  0  0  0  0  0  0  0
   -2.3016    8.4925    1.3980 C   0  0  0  0  0  0  0  0  0  0  0  0
   -1.4470    7.8337    1.9735 O   0  0  0  0  0  0  0  0  0  0  0  0
   -0.5113    8.7247   -1.0225 C   0  0  0  0  0  0  0  0  0  0  0  0
   -0.4929    9.9069   -0.7017 O   0  0  0  0  0  0  0  0  0  0  0  0
    0.1629   -2.1678    2.2060 H   0  0  0  0  0  0  0  0  0  0  0  0
   -0.9858   -3.3482    2.8433 H   0  0  0  0  0  0  0  0  0  0  0  0
   -0.6737   -5.8096    2.1703 H   0  0  0  0  0  0  0  0  0  0  0  0
   -2.3383   -8.1274    0.6957 H   0  0  0  0  0  0  0  0  0  0  0  0
   -4.1052   -7.7473    2.4135 H   0  0  0  0  0  0  0  0  0  0  0  0
   -1.1387   -8.0180    5.5319 H   0  0  0  0  0  0  0  0  0  0  0  0
    1.5873  -10.0961   -1.1304 H   0  0  0  0  0  0  0  0  0  0  0  0
    4.0397   -6.4950    0.3195 H   0  0  0  0  0  0  0  0  0  0  0  0
    5.4924   -4.5362    0.0222 H   0  0  0  0  0  0  0  0  0  0  0  0
    4.6777   -2.2457    0.5596 H   0  0  0  0  0  0  0  0  0  0  0  0
    2.3662   -1.9373    1.4783 H   0  0  0  0  0  0  0  0  0  0  0  0
    0.4307   -2.6447   -0.4809 H   0  0  0  0  0  0  0  0  0  0  0  0
   -2.2357   -1.4907   -1.2063 H   0  0  0  0  0  0  0  0  0  0  0  0
   -1.5568   -2.7661   -2.2346 H   0  0  0  0  0  0  0  0  0  0  0  0
   -0.1530   -0.1010   -1.6171 H   0  0  0  0  0  0  0  0  0  0  0  0
   -1.1330   -0.4146   -3.0647 H   0  0  0  0  0  0  0  0  0  0  0  0
    2.5670   -2.2180   -2.7355 H   0  0  0  0  0  0  0  0  0  0  0  0
    1.8774   -1.5031   -1.2702 H   0  0  0  0  0  0  0  0  0  0  0  0
    2.3083    0.1468   -3.8236 H   0  0  0  0  0  0  0  0  0  0  0  0
    3.6392   -0.1181   -2.6782 H   0  0  0  0  0  0  0  0  0  0  0  0
    2.3935    2.6350   -3.1252 H   0  0  0  0  0  0  0  0  0  0  0  0
    0.7599    1.9264   -3.2352 H   0  0  0  0  0  0  0  0  0  0  0  0
    0.3890    2.5621   -0.8055 H   0  0  0  0  0  0  0  0  0  0  0  0
    1.9430    3.4106   -0.8180 H   0  0  0  0  0  0  0  0  0  0  0  0
   -0.5986    4.2482   -2.0422 H   0  0  0  0  0  0  0  0  0  0  0  0
    2.9943    5.0747   -2.3146 H   0  0  0  0  0  0  0  0  0  0  0  0
    3.8414    7.3994   -2.0175 H   0  0  0  0  0  0  0  0  0  0  0  0
    2.2583    9.2533   -1.3996 H   0  0  0  0  0  0  0  0  0  0  0  0
   -3.3782    7.2627    0.0570 H   0  0  0  0  0  0  0  0  0  0  0  0
   -4.1854    8.9338   -1.5170 H   0  0  0  0  0  0  0  0  0  0  0  0
   -3.1187   10.1725   -0.8498 H   0  0  0  0  0  0  0  0  0  0  0  0
   -5.4039   10.4899    0.0758 H   0  0  0  0  0  0  0  0  0  0  0  0
   -5.4409    8.8291    0.6630 H   0  0  0  0  0  0  0  0  0  0  0  0
   -2.6198    9.6428    3.1022 H   0  0  0  0  0  0  0  0  0  0  0  0
  1  2  2  0  0  0  0
  2  3  1  0  0  0  0
  2 28  1  0  0  0  0
  3  4  1  0  0  0  0
  3 57  1  0  0  0  0
  3 58  1  0  0  0  0
  4  5  1  0  0  0  0
  4 27  1  0  0  0  0
  5  6  2  0  0  0  0
  5 59  1  0  0  0  0
  6  7  1  0  0  0  0
  6 22  1  0  0  0  0
  7  8  2  0  0  0  0
  7 20  1  0  0  0  0
  8  9  1  0  0  0  0
  8 17  1  0  0  0  0
  9 10  2  0  0  0  0
  9 15  1  0  0  0  0
 10 11  1  0  0  0  0
 10 60  1  0  0  0  0
 11 12  2  0  0  0  0
 11 61  1  0  0  0  0
 12 13  1  0  0  0  0
 12 14  1  0  0  0  0
 14 15  2  0  0  0  0
 14 62  1  0  0  0  0
 15 16  1  0  0  0  0
 17 18  2  0  0  0  0
 17 19  1  0  0  0  0
 19 20  1  0  0  0  0
 19 63  1  0  0  0  0
 20 21  2  0  0  0  0
 22 23  2  0  0  0  0
 22 27  1  0  0  0  0
 23 24  1  0  0  0  0
 23 64  1  0  0  0  0
 24 25  2  0  0  0  0
 24 65  1  0  0  0  0
 25 26  1  0  0  0  0
 25 66  1  0  0  0  0
 26 27  2  0  0  0  0
 26 67  1  0  0  0  0
 28 29  1  0  0  0  0
 28 68  1  0  0  0  0
 29 30  1  0  0  0  0
 29 69  1  0  0  0  0
 29 70  1  0  0  0  0
 30 31  1  0  0  0  0
 30 71  1  0  0  0  0
 30 72  1  0  0  0  0
 31 32  1  0  0  0  0
 32 33  1  0  0  0  0
 32 73  1  0  0  0  0
 32 74  1  0  0  0  0
 33 34  1  0  0  0  0
 33 75  1  0  0  0  0
 33 76  1  0  0  0  0
 34 35  1  0  0  0  0
 35 36  1  0  0  0  0
 35 77  1  0  0  0  0
 35 78  1  0  0  0  0
 36 37  1  0  0  0  0
 36 79  1  0  0  0  0
 36 80  1  0  0  0  0
 37 38  1  0  0  0  0
 37 81  1  0  0  0  0
 38 39  2  0  0  0  0
 38 43  1  0  0  0  0
 39 40  1  0  0  0  0
 39 82  1  0  0  0  0
 40 41  2  0  0  0  0
 40 83  1  0  0  0  0
 41 42  1  0  0  0  0
 41 84  1  0  0  0  0
 42 43  2  0  0  0  0
 42 55  1  0  0  0  0
 43 44  1  0  0  0  0
 44 45  2  0  0  0  0
 44 46  1  0  0  0  0
 46 47  1  0  0  0  0
 46 55  1  0  0  0  0
 47 48  1  0  0  0  0
 47 53  1  0  0  0  0
 47 85  1  0  0  0  0
 48 49  1  0  0  0  0
 48 86  1  0  0  0  0
 48 87  1  0  0  0  0
 49 50  1  0  0  0  0
 49 88  1  0  0  0  0
 49 89  1  0  0  0  0
 50 51  2  0  0  0  0
 50 52  1  0  0  0  0
 52 53  1  0  0  0  0
 52 90  1  0  0  0  0
 53 54  2  0  0  0  0
 55 56  2  0  0  0  0
M  END
$$$$
protac3895RUN2
  chem.cr 07102519423D
protac3895RUN2
 90 96  0  0  0  0  0  0  0  0999 V2000
   -0.9125   -1.5110    1.7520 O   0  0  0  0  0  0  0  0  0  0  0  0
    0.1571   -1.7773    1.2187 C   0  0  0  0  0  0  0  0  0  0  0  0
    0.4446   -3.1007    0.5552 C   0  0  0  0  0  0  0  0  0  0  0  0
    1.1003   -4.0641    1.4543 N   0  0  0  0  0  0  0  0  0  0  0  0
    0.4068   -4.6075    2.5378 C   0  0  0  0  0  0  0  0  0  0  0  0
    0.8466   -5.8552    2.8281 C   0  0  0  0  0  0  0  0  0  0  0  0
    0.3066   -6.7466    3.7243 C   0  0  0  0  0  0  0  0  0  0  0  0
   -0.6836   -6.4884    4.6143 C   0  0  0  0  0  0  0  0  0  0  0  0
   -1.3404   -5.2893    4.7955 C   0  0  0  0  0  0  0  0  0  0  0  0
   -2.5751   -5.0873    4.1516 C   0  0  0  0  0  0  0  0  0  0  0  0
   -3.2512   -3.8637    4.2803 C   0  0  0  0  0  0  0  0  0  0  0  0
   -2.7011   -2.8404    5.0689 C   0  0  0  0  0  0  0  0  0  0  0  0
   -3.5435   -1.3047    5.2188 Cl  0  0  0  0  0  0  0  0  0  0  0  0
   -1.4782   -3.0398    5.7311 C   0  0  0  0  0  0  0  0  0  0  0  0
   -0.7968   -4.2625    5.5976 C   0  0  0  0  0  0  0  0  0  0  0  0
    0.7453   -4.4846    6.4232 Cl  0  0  0  0  0  0  0  0  0  0  0  0
   -1.0225   -7.5677    5.3180 C   0  0  0  0  0  0  0  0  0  0  0  0
   -1.8719   -7.7816    6.1709 O   0  0  0  0  0  0  0  0  0  0  0  0
   -0.2140   -8.6119    4.9168 N   0  0  0  0  0  0  0  0  0  0  0  0
    0.5596   -8.0738    3.8909 C   0  0  0  0  0  0  0  0  0  0  0  0
    1.2288   -8.9020    3.2928 O   0  0  0  0  0  0  0  0  0  0  0  0
    1.9391   -6.0594    1.9594 C   0  0  0  0  0  0  0  0  0  0  0  0
    2.9942   -6.9986    1.9606 C   0  0  0  0  0  0  0  0  0  0  0  0
    4.0004   -6.9185    0.9738 C   0  0  0  0  0  0  0  0  0  0  0  0
    4.0144   -5.8661    0.0368 C   0  0  0  0  0  0  0  0  0  0  0  0
    3.0416   -4.8561    0.1048 C   0  0  0  0  0  0  0  0  0  0  0  0
    2.0393   -4.9785    1.0752 C   0  0  0  0  0  0  0  0  0  0  0  0
    1.1912   -0.8275    1.2144 N   0  0  0  0  0  0  0  0  0  0  0  0
    1.1346    0.4443    1.9553 C   0  0  0  0  0  0  0  0  0  0  0  0
    1.1294    1.6702    1.0264 C   0  0  0  0  0  0  0  0  0  0  0  0
    2.3993    1.7322    0.3486 O   0  0  0  0  0  0  0  0  0  0  0  0
    2.8271    3.0446   -0.0718 C   0  0  0  0  0  0  0  0  0  0  0  0
    1.8691    3.6153   -1.1435 C   0  0  0  0  0  0  0  0  0  0  0  0
    1.8659    5.0468   -1.0429 O   0  0  0  0  0  0  0  0  0  0  0  0
    3.0129    5.7325   -1.5701 C   0  0  0  0  0  0  0  0  0  0  0  0
    2.5467    7.1527   -1.9757 C   0  0  0  0  0  0  0  0  0  0  0  0
    1.3044    7.0969   -2.7726 N   0  0  0  0  0  0  0  0  0  0  0  0
    1.1543    6.1957   -3.8186 C   0  0  0  0  0  0  0  0  0  0  0  0
    2.1250    6.0543   -4.8344 C   0  0  0  0  0  0  0  0  0  0  0  0
    1.9763    5.0802   -5.8527 C   0  0  0  0  0  0  0  0  0  0  0  0
    0.8534    4.2241   -5.8688 C   0  0  0  0  0  0  0  0  0  0  0  0
   -0.1070    4.3831   -4.8611 C   0  0  0  0  0  0  0  0  0  0  0  0
    0.0407    5.3474   -3.8650 C   0  0  0  0  0  0  0  0  0  0  0  0
   -1.0205    5.2227   -3.0009 C   0  0  0  0  0  0  0  0  0  0  0  0
   -1.2774    5.8832   -2.0003 O   0  0  0  0  0  0  0  0  0  0  0  0
   -1.8291    4.1665   -3.4295 N   0  0  0  0  0  0  0  0  0  0  0  0
   -3.2102    3.9368   -2.9578 C   0  0  0  0  0  0  0  0  0  0  0  0
   -3.4146    2.4840   -2.4811 C   0  0  0  0  0  0  0  0  0  0  0  0
   -4.8540    2.3176   -1.9447 C   0  0  0  0  0  0  0  0  0  0  0  0
   -5.8954    2.8145   -2.9254 C   0  0  0  0  0  0  0  0  0  0  0  0
   -7.0640    2.4657   -2.8884 O   0  0  0  0  0  0  0  0  0  0  0  0
   -5.5754    3.8676   -3.7908 N   0  0  0  0  0  0  0  0  0  0  0  0
   -4.2645    4.3240   -3.9874 C   0  0  0  0  0  0  0  0  0  0  0  0
   -4.1258    5.2171   -4.8133 O   0  0  0  0  0  0  0  0  0  0  0  0
   -1.2683    3.6800   -4.6207 C   0  0  0  0  0  0  0  0  0  0  0  0
   -1.6201    2.6208   -5.1274 O   0  0  0  0  0  0  0  0  0  0  0  0
   -0.5013   -3.5430    0.2229 H   0  0  0  0  0  0  0  0  0  0  0  0
    1.0633   -2.9399   -0.3325 H   0  0  0  0  0  0  0  0  0  0  0  0
   -0.4268   -4.0330    2.9297 H   0  0  0  0  0  0  0  0  0  0  0  0
   -2.9999   -5.8782    3.5378 H   0  0  0  0  0  0  0  0  0  0  0  0
   -4.1947   -3.7068    3.7660 H   0  0  0  0  0  0  0  0  0  0  0  0
   -1.0579   -2.2458    6.3417 H   0  0  0  0  0  0  0  0  0  0  0  0
   -0.4909   -9.5801    4.9518 H   0  0  0  0  0  0  0  0  0  0  0  0
    3.1034   -7.7487    2.7290 H   0  0  0  0  0  0  0  0  0  0  0  0
    4.7952   -7.6595    0.9615 H   0  0  0  0  0  0  0  0  0  0  0  0
    4.8099   -5.8067   -0.6990 H   0  0  0  0  0  0  0  0  0  0  0  0
    3.0909   -3.9971   -0.5552 H   0  0  0  0  0  0  0  0  0  0  0  0
    2.0473   -1.0521    0.7223 H   0  0  0  0  0  0  0  0  0  0  0  0
    2.0019    0.5078    2.6237 H   0  0  0  0  0  0  0  0  0  0  0  0
    0.2336    0.4726    2.5829 H   0  0  0  0  0  0  0  0  0  0  0  0
    0.9677    2.5726    1.6315 H   0  0  0  0  0  0  0  0  0  0  0  0
    0.3012    1.5837    0.3098 H   0  0  0  0  0  0  0  0  0  0  0  0
    3.8409    2.9968   -0.4880 H   0  0  0  0  0  0  0  0  0  0  0  0
    2.8546    3.7228    0.7910 H   0  0  0  0  0  0  0  0  0  0  0  0
    0.8483    3.2528   -0.9887 H   0  0  0  0  0  0  0  0  0  0  0  0
    2.1789    3.2886   -2.1444 H   0  0  0  0  0  0  0  0  0  0  0  0
    3.8163    5.7888   -0.8236 H   0  0  0  0  0  0  0  0  0  0  0  0
    3.3995    5.2169   -2.4586 H   0  0  0  0  0  0  0  0  0  0  0  0
    2.3585    7.7341   -1.0640 H   0  0  0  0  0  0  0  0  0  0  0  0
    3.3383    7.6646   -2.5369 H   0  0  0  0  0  0  0  0  0  0  0  0
    0.4517    7.2023   -2.2302 H   0  0  0  0  0  0  0  0  0  0  0  0
    2.9976    6.6993   -4.8347 H   0  0  0  0  0  0  0  0  0  0  0  0
    2.7347    4.9857   -6.6257 H   0  0  0  0  0  0  0  0  0  0  0  0
    0.7315    3.4662   -6.6381 H   0  0  0  0  0  0  0  0  0  0  0  0
   -3.3738    4.5947   -2.0938 H   0  0  0  0  0  0  0  0  0  0  0  0
   -2.6745    2.2284   -1.7109 H   0  0  0  0  0  0  0  0  0  0  0  0
   -3.2620    1.7951   -3.3224 H   0  0  0  0  0  0  0  0  0  0  0  0
   -5.0483    1.2605   -1.7225 H   0  0  0  0  0  0  0  0  0  0  0  0
   -4.9721    2.8629   -0.9998 H   0  0  0  0  0  0  0  0  0  0  0  0
   -6.3015    4.2385   -4.3851 H   0  0  0  0  0  0  0  0  0  0  0  0
  1  2  2  0  0  0  0
  2  3  1  0  0  0  0
  2 28  1  0  0  0  0
  3  4  1  0  0  0  0
  3 57  1  0  0  0  0
  3 58  1  0  0  0  0
  4  5  1  0  0  0  0
  4 27  1  0  0  0  0
  5  6  2  0  0  0  0
  5 59  1  0  0  0  0
  6  7  1  0  0  0  0
  6 22  1  0  0  0  0
  7  8  2  0  0  0  0
  7 20  1  0  0  0  0
  8  9  1  0  0  0  0
  8 17  1  0  0  0  0
  9 10  2  0  0  0  0
  9 15  1  0  0  0  0
 10 11  1  0  0  0  0
 10 60  1  0  0  0  0
 11 12  2  0  0  0  0
 11 61  1  0  0  0  0
 12 13  1  0  0  0  0
 12 14  1  0  0  0  0
 14 15  2  0  0  0  0
 14 62  1  0  0  0  0
 15 16  1  0  0  0  0
 17 18  2  0  0  0  0
 17 19  1  0  0  0  0
 19 20  1  0  0  0  0
 19 63  1  0  0  0  0
 20 21  2  0  0  0  0
 22 23  2  0  0  0  0
 22 27  1  0  0  0  0
 23 24  1  0  0  0  0
 23 64  1  0  0  0  0
 24 25  2  0  0  0  0
 24 65  1  0  0  0  0
 25 26  1  0  0  0  0
 25 66  1  0  0  0  0
 26 27  2  0  0  0  0
 26 67  1  0  0  0  0
 28 29  1  0  0  0  0
 28 68  1  0  0  0  0
 29 30  1  0  0  0  0
 29 69  1  0  0  0  0
 29 70  1  0  0  0  0
 30 31  1  0  0  0  0
 30 71  1  0  0  0  0
 30 72  1  0  0  0  0
 31 32  1  0  0  0  0
 32 33  1  0  0  0  0
 32 73  1  0  0  0  0
 32 74  1  0  0  0  0
 33 34  1  0  0  0  0
 33 75  1  0  0  0  0
 33 76  1  0  0  0  0
 34 35  1  0  0  0  0
 35 36  1  0  0  0  0
 35 77  1  0  0  0  0
 35 78  1  0  0  0  0
 36 37  1  0  0  0  0
 36 79  1  0  0  0  0
 36 80  1  0  0  0  0
 37 38  1  0  0  0  0
 37 81  1  0  0  0  0
 38 39  2  0  0  0  0
 38 43  1  0  0  0  0
 39 40  1  0  0  0  0
 39 82  1  0  0  0  0
 40 41  2  0  0  0  0
 40 83  1  0  0  0  0
 41 42  1  0  0  0  0
 41 84  1  0  0  0  0
 42 43  2  0  0  0  0
 42 55  1  0  0  0  0
 43 44  1  0  0  0  0
 44 45  2  0  0  0  0
 44 46  1  0  0  0  0
 46 47  1  0  0  0  0
 46 55  1  0  0  0  0
 47 48  1  0  0  0  0
 47 53  1  0  0  0  0
 47 85  1  0  0  0  0
 48 49  1  0  0  0  0
 48 86  1  0  0  0  0
 48 87  1  0  0  0  0
 49 50  1  0  0  0  0
 49 88  1  0  0  0  0
 49 89  1  0  0  0  0
 50 51  2  0  0  0  0
 50 52  1  0  0  0  0
 52 53  1  0  0  0  0
 52 90  1  0  0  0  0
 53 54  2  0  0  0  0
 55 56  2  0  0  0  0
M  END
$$$$
protac3895RUN2
  chem.cr 07102519423D
protac3895RUN2
 90 96  0  0  0  0  0  0  0  0999 V2000
    5.1346    1.2420    0.6765 O   0  0  0  0  0  0  0  0  0  0  0  0
    4.2843    2.0756    0.9619 C   0  0  0  0  0  0  0  0  0  0  0  0
    4.6044    3.3584    1.6917 C   0  0  0  0  0  0  0  0  0  0  0  0
    3.6468    3.7002    2.7585 N   0  0  0  0  0  0  0  0  0  0  0  0
    3.5789    2.9675    3.9458 C   0  0  0  0  0  0  0  0  0  0  0  0
    2.3391    3.0294    4.4858 C   0  0  0  0  0  0  0  0  0  0  0  0
    1.8653    2.3163    5.5626 C   0  0  0  0  0  0  0  0  0  0  0  0
    2.5997    1.5560    6.4100 C   0  0  0  0  0  0  0  0  0  0  0  0
    3.9678    1.3650    6.3890 C   0  0  0  0  0  0  0  0  0  0  0  0
    4.8091    2.2909    7.0353 C   0  0  0  0  0  0  0  0  0  0  0  0
    6.2039    2.1073    7.0293 C   0  0  0  0  0  0  0  0  0  0  0  0
    6.7619    0.9927    6.3835 C   0  0  0  0  0  0  0  0  0  0  0  0
    8.5049    0.7634    6.3757 Cl  0  0  0  0  0  0  0  0  0  0  0  0
    5.9290    0.0594    5.7475 C   0  0  0  0  0  0  0  0  0  0  0  0
    4.5365    0.2430    5.7458 C   0  0  0  0  0  0  0  0  0  0  0  0
    3.5221   -0.9260    4.9021 Cl  0  0  0  0  0  0  0  0  0  0  0  0
    1.8432    0.9536    7.3289 C   0  0  0  0  0  0  0  0  0  0  0  0
    2.0891    0.1833    8.2456 O   0  0  0  0  0  0  0  0  0  0  0  0
    0.5324    1.3353    7.1214 N   0  0  0  0  0  0  0  0  0  0  0  0
    0.5838    2.1408    5.9837 C   0  0  0  0  0  0  0  0  0  0  0  0
   -0.5125    2.4437    5.5402 O   0  0  0  0  0  0  0  0  0  0  0  0
    1.6260    3.9196    3.6538 C   0  0  0  0  0  0  0  0  0  0  0  0
    0.4059    4.6128    3.8242 C   0  0  0  0  0  0  0  0  0  0  0  0
   -0.0389    5.4982    2.8173 C   0  0  0  0  0  0  0  0  0  0  0  0
    0.7499    5.7570    1.6788 C   0  0  0  0  0  0  0  0  0  0  0  0
    2.0204    5.1681    1.5585 C   0  0  0  0  0  0  0  0  0  0  0  0
    2.4247    4.2779    2.5626 C   0  0  0  0  0  0  0  0  0  0  0  0
    3.0014    1.9775    0.3969 N   0  0  0  0  0  0  0  0  0  0  0  0
    2.5825    0.8953   -0.5080 C   0  0  0  0  0  0  0  0  0  0  0  0
    2.3714    1.3907   -1.9532 C   0  0  0  0  0  0  0  0  0  0  0  0
    1.1494    2.1418   -1.9942 O   0  0  0  0  0  0  0  0  0  0  0  0
    0.7721    2.6036   -3.3004 C   0  0  0  0  0  0  0  0  0  0  0  0
   -0.6885    3.1019   -3.2429 C   0  0  0  0  0  0  0  0  0  0  0  0
   -1.4948    1.9476   -2.9903 O   0  0  0  0  0  0  0  0  0  0  0  0
   -2.8972    2.0632   -3.2289 C   0  0  0  0  0  0  0  0  0  0  0  0
   -3.5552    0.7831   -2.6657 C   0  0  0  0  0  0  0  0  0  0  0  0
   -3.4902   -0.3693   -3.5905 N   0  0  0  0  0  0  0  0  0  0  0  0
   -2.5984   -1.4334   -3.4742 C   0  0  0  0  0  0  0  0  0  0  0  0
   -1.2511   -1.2766   -3.0648 C   0  0  0  0  0  0  0  0  0  0  0  0
   -0.3672   -2.3794   -2.9907 C   0  0  0  0  0  0  0  0  0  0  0  0
   -0.8141   -3.6771   -3.3005 C   0  0  0  0  0  0  0  0  0  0  0  0
   -2.1489   -3.8306   -3.6909 C   0  0  0  0  0  0  0  0  0  0  0  0
   -3.0178   -2.7388   -3.7835 C   0  0  0  0  0  0  0  0  0  0  0  0
   -4.2603   -3.2193   -4.1403 C   0  0  0  0  0  0  0  0  0  0  0  0
   -5.3366   -2.6322   -4.0985 O   0  0  0  0  0  0  0  0  0  0  0  0
   -4.1859   -4.6146   -4.2108 N   0  0  0  0  0  0  0  0  0  0  0  0
   -5.2907   -5.5326   -4.5622 C   0  0  0  0  0  0  0  0  0  0  0  0
   -5.6793   -6.3961   -3.3357 C   0  0  0  0  0  0  0  0  0  0  0  0
   -6.5921   -7.5676   -3.7548 C   0  0  0  0  0  0  0  0  0  0  0  0
   -5.9449   -8.3869   -4.8432 C   0  0  0  0  0  0  0  0  0  0  0  0
   -6.1106   -9.5894   -4.9783 O   0  0  0  0  0  0  0  0  0  0  0  0
   -5.2869   -7.7109   -5.8738 N   0  0  0  0  0  0  0  0  0  0  0  0
   -4.9549   -6.3508   -5.8060 C   0  0  0  0  0  0  0  0  0  0  0  0
   -4.5588   -5.8521   -6.8518 O   0  0  0  0  0  0  0  0  0  0  0  0
   -2.8509   -4.9746   -3.9881 C   0  0  0  0  0  0  0  0  0  0  0  0
   -2.4883   -6.1380   -3.8543 O   0  0  0  0  0  0  0  0  0  0  0  0
    5.6042    3.2679    2.1334 H   0  0  0  0  0  0  0  0  0  0  0  0
    4.6454    4.1779    0.9662 H   0  0  0  0  0  0  0  0  0  0  0  0
    4.4434    2.3756    4.2211 H   0  0  0  0  0  0  0  0  0  0  0  0
    4.3776    3.1485    7.5418 H   0  0  0  0  0  0  0  0  0  0  0  0
    6.8501    2.8219    7.5320 H   0  0  0  0  0  0  0  0  0  0  0  0
    6.3615   -0.8103    5.2605 H   0  0  0  0  0  0  0  0  0  0  0  0
   -0.2579    0.7502    7.3437 H   0  0  0  0  0  0  0  0  0  0  0  0
   -0.1792    4.5432    4.7282 H   0  0  0  0  0  0  0  0  0  0  0  0
   -0.9893    6.0118    2.9413 H   0  0  0  0  0  0  0  0  0  0  0  0
    0.3987    6.4563    0.9233 H   0  0  0  0  0  0  0  0  0  0  0  0
    2.6692    5.4213    0.7298 H   0  0  0  0  0  0  0  0  0  0  0  0
    2.3095    2.6597    0.6904 H   0  0  0  0  0  0  0  0  0  0  0  0
    1.6447    0.4631   -0.1367 H   0  0  0  0  0  0  0  0  0  0  0  0
    3.3402    0.1012   -0.5062 H   0  0  0  0  0  0  0  0  0  0  0  0
    2.3050    0.5203   -2.6191 H   0  0  0  0  0  0  0  0  0  0  0  0
    3.2289    2.0012   -2.2698 H   0  0  0  0  0  0  0  0  0  0  0  0
    0.8310    1.7890   -4.0351 H   0  0  0  0  0  0  0  0  0  0  0  0
    1.4349    3.4141   -3.6281 H   0  0  0  0  0  0  0  0  0  0  0  0
   -0.9559    3.5592   -4.2046 H   0  0  0  0  0  0  0  0  0  0  0  0
   -0.8022    3.8518   -2.4489 H   0  0  0  0  0  0  0  0  0  0  0  0
   -3.3025    2.9383   -2.7044 H   0  0  0  0  0  0  0  0  0  0  0  0
   -3.1094    2.1683   -4.3011 H   0  0  0  0  0  0  0  0  0  0  0  0
   -3.0886    0.5287   -1.7059 H   0  0  0  0  0  0  0  0  0  0  0  0
   -4.6107    1.0017   -2.4610 H   0  0  0  0  0  0  0  0  0  0  0  0
   -4.3620   -0.6253   -4.0413 H   0  0  0  0  0  0  0  0  0  0  0  0
   -0.8659   -0.2994   -2.8073 H   0  0  0  0  0  0  0  0  0  0  0  0
    0.6635   -2.2223   -2.6848 H   0  0  0  0  0  0  0  0  0  0  0  0
   -0.1530   -4.5364   -3.2264 H   0  0  0  0  0  0  0  0  0  0  0  0
   -6.1606   -4.9203   -4.8327 H   0  0  0  0  0  0  0  0  0  0  0  0
   -6.1630   -5.7682   -2.5766 H   0  0  0  0  0  0  0  0  0  0  0  0
   -4.7742   -6.8053   -2.8684 H   0  0  0  0  0  0  0  0  0  0  0  0
   -6.7998   -8.2163   -2.8941 H   0  0  0  0  0  0  0  0  0  0  0  0
   -7.5605   -7.1963   -4.1136 H   0  0  0  0  0  0  0  0  0  0  0  0
   -5.0007   -8.2353   -6.6848 H   0  0  0  0  0  0  0  0  0  0  0  0
  1  2  2  0  0  0  0
  2  3  1  0  0  0  0
  2 28  1  0  0  0  0
  3  4  1  0  0  0  0
  3 57  1  0  0  0  0
  3 58  1  0  0  0  0
  4  5  1  0  0  0  0
  4 27  1  0  0  0  0
  5  6  2  0  0  0  0
  5 59  1  0  0  0  0
  6  7  1  0  0  0  0
  6 22  1  0  0  0  0
  7  8  2  0  0  0  0
  7 20  1  0  0  0  0
  8  9  1  0  0  0  0
  8 17  1  0  0  0  0
  9 10  2  0  0  0  0
  9 15  1  0  0  0  0
 10 11  1  0  0  0  0
 10 60  1  0  0  0  0
 11 12  2  0  0  0  0
 11 61  1  0  0  0  0
 12 13  1  0  0  0  0
 12 14  1  0  0  0  0
 14 15  2  0  0  0  0
 14 62  1  0  0  0  0
 15 16  1  0  0  0  0
 17 18  2  0  0  0  0
 17 19  1  0  0  0  0
 19 20  1  0  0  0  0
 19 63  1  0  0  0  0
 20 21  2  0  0  0  0
 22 23  2  0  0  0  0
 22 27  1  0  0  0  0
 23 24  1  0  0  0  0
 23 64  1  0  0  0  0
 24 25  2  0  0  0  0
 24 65  1  0  0  0  0
 25 26  1  0  0  0  0
 25 66  1  0  0  0  0
 26 27  2  0  0  0  0
 26 67  1  0  0  0  0
 28 29  1  0  0  0  0
 28 68  1  0  0  0  0
 29 30  1  0  0  0  0
 29 69  1  0  0  0  0
 29 70  1  0  0  0  0
 30 31  1  0  0  0  0
 30 71  1  0  0  0  0
 30 72  1  0  0  0  0
 31 32  1  0  0  0  0
 32 33  1  0  0  0  0
 32 73  1  0  0  0  0
 32 74  1  0  0  0  0
 33 34  1  0  0  0  0
 33 75  1  0  0  0  0
 33 76  1  0  0  0  0
 34 35  1  0  0  0  0
 35 36  1  0  0  0  0
 35 77  1  0  0  0  0
 35 78  1  0  0  0  0
 36 37  1  0  0  0  0
 36 79  1  0  0  0  0
 36 80  1  0  0  0  0
 37 38  1  0  0  0  0
 37 81  1  0  0  0  0
 38 39  2  0  0  0  0
 38 43  1  0  0  0  0
 39 40  1  0  0  0  0
 39 82  1  0  0  0  0
 40 41  2  0  0  0  0
 40 83  1  0  0  0  0
 41 42  1  0  0  0  0
 41 84  1  0  0  0  0
 42 43  2  0  0  0  0
 42 55  1  0  0  0  0
 43 44  1  0  0  0  0
 44 45  2  0  0  0  0
 44 46  1  0  0  0  0
 46 47  1  0  0  0  0
 46 55  1  0  0  0  0
 47 48  1  0  0  0  0
 47 53  1  0  0  0  0
 47 85  1  0  0  0  0
 48 49  1  0  0  0  0
 48 86  1  0  0  0  0
 48 87  1  0  0  0  0
 49 50  1  0  0  0  0
 49 88  1  0  0  0  0
 49 89  1  0  0  0  0
 50 51  2  0  0  0  0
 50 52  1  0  0  0  0
 52 53  1  0  0  0  0
 52 90  1  0  0  0  0
 53 54  2  0  0  0  0
 55 56  2  0  0  0  0
M  END
$$$$
protac3895RUN2
  chem.cr 07102519423D
protac3895RUN2
 90 96  0  0  0  0  0  0  0  0999 V2000
    2.8261    4.1567   -0.9472 O   0  0  0  0  0  0  0  0  0  0  0  0
    2.5619    3.0306   -0.5503 C   0  0  0  0  0  0  0  0  0  0  0  0
    3.5851    1.9260   -0.4204 C   0  0  0  0  0  0  0  0  0  0  0  0
    3.3087    0.7205   -1.2328 N   0  0  0  0  0  0  0  0  0  0  0  0
    2.5554    0.7644   -2.4115 C   0  0  0  0  0  0  0  0  0  0  0  0
    1.9519   -0.4239   -2.6418 C   0  0  0  0  0  0  0  0  0  0  0  0
    1.0221   -0.7099   -3.6071 C   0  0  0  0  0  0  0  0  0  0  0  0
    0.7176    0.0581   -4.6845 C   0  0  0  0  0  0  0  0  0  0  0  0
    1.3626    1.2203   -5.0742 C   0  0  0  0  0  0  0  0  0  0  0  0
    2.7106    1.1411   -5.4821 C   0  0  0  0  0  0  0  0  0  0  0  0
    3.4127    2.2971   -5.8615 C   0  0  0  0  0  0  0  0  0  0  0  0
    2.7670    3.5422   -5.8519 C   0  0  0  0  0  0  0  0  0  0  0  0
    3.6430    4.9910   -6.3278 Cl  0  0  0  0  0  0  0  0  0  0  0  0
    1.4187    3.6316   -5.4745 C   0  0  0  0  0  0  0  0  0  0  0  0
    0.7134    2.4784   -5.0904 C   0  0  0  0  0  0  0  0  0  0  0  0
   -0.9804    2.6553   -4.6392 Cl  0  0  0  0  0  0  0  0  0  0  0  0
   -0.2626   -0.4794   -5.4133 C   0  0  0  0  0  0  0  0  0  0  0  0
   -0.8276   -0.1454   -6.4463 O   0  0  0  0  0  0  0  0  0  0  0  0
   -0.6356   -1.6692   -4.8181 N   0  0  0  0  0  0  0  0  0  0  0  0
    0.1633   -1.7601   -3.6811 C   0  0  0  0  0  0  0  0  0  0  0  0
   -0.1279   -2.6803   -2.9306 O   0  0  0  0  0  0  0  0  0  0  0  0
    2.4297   -1.2809   -1.6310 C   0  0  0  0  0  0  0  0  0  0  0  0
    2.4145   -2.6875   -1.5020 C   0  0  0  0  0  0  0  0  0  0  0  0
    3.0762   -3.2932   -0.4114 C   0  0  0  0  0  0  0  0  0  0  0  0
    3.8191   -2.5212    0.5065 C   0  0  0  0  0  0  0  0  0  0  0  0
    3.9359   -1.1331    0.3176 C   0  0  0  0  0  0  0  0  0  0  0  0
    3.2351   -0.5543   -0.7484 C   0  0  0  0  0  0  0  0  0  0  0  0
    1.2335    2.7013   -0.2536 N   0  0  0  0  0  0  0  0  0  0  0  0
    0.1127    3.6399   -0.4054 C   0  0  0  0  0  0  0  0  0  0  0  0
   -1.2310    3.0253    0.0552 C   0  0  0  0  0  0  0  0  0  0  0  0
   -1.8788    2.3348   -1.0361 O   0  0  0  0  0  0  0  0  0  0  0  0
   -1.2329    1.1928   -1.6409 C   0  0  0  0  0  0  0  0  0  0  0  0
   -1.1822   -0.0018   -0.6689 C   0  0  0  0  0  0  0  0  0  0  0  0
   -0.0989    0.1875    0.2464 O   0  0  0  0  0  0  0  0  0  0  0  0
    0.1867   -0.9441    1.0633 C   0  0  0  0  0  0  0  0  0  0  0  0
    1.0822   -0.4610    2.2220 C   0  0  0  0  0  0  0  0  0  0  0  0
    1.4475   -1.5647    3.1345 N   0  0  0  0  0  0  0  0  0  0  0  0
    0.5675   -2.5846    3.4896 C   0  0  0  0  0  0  0  0  0  0  0  0
    1.0146   -3.9224    3.4293 C   0  0  0  0  0  0  0  0  0  0  0  0
    0.1216   -5.0044    3.6161 C   0  0  0  0  0  0  0  0  0  0  0  0
   -1.2471   -4.7670    3.8517 C   0  0  0  0  0  0  0  0  0  0  0  0
   -1.6764   -3.4375    3.9483 C   0  0  0  0  0  0  0  0  0  0  0  0
   -0.7872   -2.3698    3.8110 C   0  0  0  0  0  0  0  0  0  0  0  0
   -1.5064   -1.2029    3.9555 C   0  0  0  0  0  0  0  0  0  0  0  0
   -1.1045   -0.1502    4.4362 O   0  0  0  0  0  0  0  0  0  0  0  0
   -2.8584   -1.5423    4.0638 N   0  0  0  0  0  0  0  0  0  0  0  0
   -4.0023   -0.6185    3.9027 C   0  0  0  0  0  0  0  0  0  0  0  0
   -3.7576    0.4018    2.7641 C   0  0  0  0  0  0  0  0  0  0  0  0
   -4.9626    1.3569    2.6442 C   0  0  0  0  0  0  0  0  0  0  0  0
   -5.3032    1.9969    3.9719 C   0  0  0  0  0  0  0  0  0  0  0  0
   -5.8968    3.0589    4.0686 O   0  0  0  0  0  0  0  0  0  0  0  0
   -5.1371    1.2516    5.1459 N   0  0  0  0  0  0  0  0  0  0  0  0
   -4.3733    0.0758    5.2074 C   0  0  0  0  0  0  0  0  0  0  0  0
   -4.3494   -0.4774    6.2987 O   0  0  0  0  0  0  0  0  0  0  0  0
   -2.9463   -2.9371    4.1182 C   0  0  0  0  0  0  0  0  0  0  0  0
   -4.0020   -3.5213    3.9004 O   0  0  0  0  0  0  0  0  0  0  0  0
    4.5622    2.3222   -0.7196 H   0  0  0  0  0  0  0  0  0  0  0  0
    3.6524    1.6429    0.6358 H   0  0  0  0  0  0  0  0  0  0  0  0
    2.4387    1.7232   -2.9092 H   0  0  0  0  0  0  0  0  0  0  0  0
    3.2137    0.1774   -5.4902 H   0  0  0  0  0  0  0  0  0  0  0  0
    4.4531    2.2275   -6.1672 H   0  0  0  0  0  0  0  0  0  0  0  0
    0.9175    4.5956   -5.4850 H   0  0  0  0  0  0  0  0  0  0  0  0
   -1.5490   -2.0860   -4.9022 H   0  0  0  0  0  0  0  0  0  0  0  0
    1.9651   -3.3328   -2.2430 H   0  0  0  0  0  0  0  0  0  0  0  0
    3.0505   -4.3749   -0.3068 H   0  0  0  0  0  0  0  0  0  0  0  0
    4.3541   -3.0084    1.3169 H   0  0  0  0  0  0  0  0  0  0  0  0
    4.5817   -0.5378    0.9559 H   0  0  0  0  0  0  0  0  0  0  0  0
    1.0101    1.7261   -0.0717 H   0  0  0  0  0  0  0  0  0  0  0  0
    0.0364    3.9573   -1.4546 H   0  0  0  0  0  0  0  0  0  0  0  0
    0.3270    4.5337    0.1957 H   0  0  0  0  0  0  0  0  0  0  0  0
   -1.8838    3.8453    0.3800 H   0  0  0  0  0  0  0  0  0  0  0  0
   -1.0846    2.3735    0.9255 H   0  0  0  0  0  0  0  0  0  0  0  0
   -0.2282    1.4336   -2.0070 H   0  0  0  0  0  0  0  0  0  0  0  0
   -1.8181    0.8811   -2.5141 H   0  0  0  0  0  0  0  0  0  0  0  0
   -1.0314   -0.9215   -1.2464 H   0  0  0  0  0  0  0  0  0  0  0  0
   -2.1377   -0.0843   -0.1390 H   0  0  0  0  0  0  0  0  0  0  0  0
   -0.7450   -1.3729    1.4477 H   0  0  0  0  0  0  0  0  0  0  0  0
    0.7023   -1.7213    0.4866 H   0  0  0  0  0  0  0  0  0  0  0  0
    1.9901   -0.0214    1.7966 H   0  0  0  0  0  0  0  0  0  0  0  0
    0.5739    0.3407    2.7706 H   0  0  0  0  0  0  0  0  0  0  0  0
    2.4259   -1.8155    3.1521 H   0  0  0  0  0  0  0  0  0  0  0  0
    2.0538   -4.1294    3.1935 H   0  0  0  0  0  0  0  0  0  0  0  0
    0.4856   -6.0254    3.5421 H   0  0  0  0  0  0  0  0  0  0  0  0
   -1.9541   -5.5873    3.9523 H   0  0  0  0  0  0  0  0  0  0  0  0
   -4.8765   -1.2210    3.6237 H   0  0  0  0  0  0  0  0  0  0  0  0
   -3.5782   -0.1210    1.8158 H   0  0  0  0  0  0  0  0  0  0  0  0
   -2.8601    0.9973    2.9821 H   0  0  0  0  0  0  0  0  0  0  0  0
   -4.7405    2.1424    1.9099 H   0  0  0  0  0  0  0  0  0  0  0  0
   -5.8426    0.8176    2.2723 H   0  0  0  0  0  0  0  0  0  0  0  0
   -5.4866    1.6347    6.0119 H   0  0  0  0  0  0  0  0  0  0  0  0
  1  2  2  0  0  0  0
  2  3  1  0  0  0  0
  2 28  1  0  0  0  0
  3  4  1  0  0  0  0
  3 57  1  0  0  0  0
  3 58  1  0  0  0  0
  4  5  1  0  0  0  0
  4 27  1  0  0  0  0
  5  6  2  0  0  0  0
  5 59  1  0  0  0  0
  6  7  1  0  0  0  0
  6 22  1  0  0  0  0
  7  8  2  0  0  0  0
  7 20  1  0  0  0  0
  8  9  1  0  0  0  0
  8 17  1  0  0  0  0
  9 10  2  0  0  0  0
  9 15  1  0  0  0  0
 10 11  1  0  0  0  0
 10 60  1  0  0  0  0
 11 12  2  0  0  0  0
 11 61  1  0  0  0  0
 12 13  1  0  0  0  0
 12 14  1  0  0  0  0
 14 15  2  0  0  0  0
 14 62  1  0  0  0  0
 15 16  1  0  0  0  0
 17 18  2  0  0  0  0
 17 19  1  0  0  0  0
 19 20  1  0  0  0  0
 19 63  1  0  0  0  0
 20 21  2  0  0  0  0
 22 23  2  0  0  0  0
 22 27  1  0  0  0  0
 23 24  1  0  0  0  0
 23 64  1  0  0  0  0
 24 25  2  0  0  0  0
 24 65  1  0  0  0  0
 25 26  1  0  0  0  0
 25 66  1  0  0  0  0
 26 27  2  0  0  0  0
 26 67  1  0  0  0  0
 28 29  1  0  0  0  0
 28 68  1  0  0  0  0
 29 30  1  0  0  0  0
 29 69  1  0  0  0  0
 29 70  1  0  0  0  0
 30 31  1  0  0  0  0
 30 71  1  0  0  0  0
 30 72  1  0  0  0  0
 31 32  1  0  0  0  0
 32 33  1  0  0  0  0
 32 73  1  0  0  0  0
 32 74  1  0  0  0  0
 33 34  1  0  0  0  0
 33 75  1  0  0  0  0
 33 76  1  0  0  0  0
 34 35  1  0  0  0  0
 35 36  1  0  0  0  0
 35 77  1  0  0  0  0
 35 78  1  0  0  0  0
 36 37  1  0  0  0  0
 36 79  1  0  0  0  0
 36 80  1  0  0  0  0
 37 38  1  0  0  0  0
 37 81  1  0  0  0  0
 38 39  2  0  0  0  0
 38 43  1  0  0  0  0
 39 40  1  0  0  0  0
 39 82  1  0  0  0  0
 40 41  2  0  0  0  0
 40 83  1  0  0  0  0
 41 42  1  0  0  0  0
 41 84  1  0  0  0  0
 42 43  2  0  0  0  0
 42 55  1  0  0  0  0
 43 44  1  0  0  0  0
 44 45  2  0  0  0  0
 44 46  1  0  0  0  0
 46 47  1  0  0  0  0
 46 55  1  0  0  0  0
 47 48  1  0  0  0  0
 47 53  1  0  0  0  0
 47 85  1  0  0  0  0
 48 49  1  0  0  0  0
 48 86  1  0  0  0  0
 48 87  1  0  0  0  0
 49 50  1  0  0  0  0
 49 88  1  0  0  0  0
 49 89  1  0  0  0  0
 50 51  2  0  0  0  0
 50 52  1  0  0  0  0
 52 53  1  0  0  0  0
 52 90  1  0  0  0  0
 53 54  2  0  0  0  0
 55 56  2  0  0  0  0
M  END
$$$$
protac3895RUN2
  chem.cr 07102519423D
protac3895RUN2
 90 96  0  0  0  0  0  0  0  0999 V2000
    1.5193   -2.1220    0.7774 O   0  0  0  0  0  0  0  0  0  0  0  0
    2.0483   -1.2276    1.4218 C   0  0  0  0  0  0  0  0  0  0  0  0
    3.5409   -0.9904    1.4340 C   0  0  0  0  0  0  0  0  0  0  0  0
    3.9373    0.3581    0.9860 N   0  0  0  0  0  0  0  0  0  0  0  0
    4.6774    0.5112   -0.1939 C   0  0  0  0  0  0  0  0  0  0  0  0
    5.4805    1.6001   -0.1365 C   0  0  0  0  0  0  0  0  0  0  0  0
    6.2661    2.1084   -1.1380 C   0  0  0  0  0  0  0  0  0  0  0  0
    6.6196    1.4619   -2.2779 C   0  0  0  0  0  0  0  0  0  0  0  0
    6.3431    0.1453   -2.6010 C   0  0  0  0  0  0  0  0  0  0  0  0
    5.4686   -0.1396   -3.6699 C   0  0  0  0  0  0  0  0  0  0  0  0
    5.1739   -1.4714   -4.0096 C   0  0  0  0  0  0  0  0  0  0  0  0
    5.7545   -2.5253   -3.2866 C   0  0  0  0  0  0  0  0  0  0  0  0
    5.3857   -4.1912   -3.7134 Cl  0  0  0  0  0  0  0  0  0  0  0  0
    6.6432   -2.2515   -2.2354 C   0  0  0  0  0  0  0  0  0  0  0  0
    6.9442   -0.9235   -1.8956 C   0  0  0  0  0  0  0  0  0  0  0  0
    8.0909   -0.6236   -0.5891 Cl  0  0  0  0  0  0  0  0  0  0  0  0
    7.3914    2.2190   -3.0596 C   0  0  0  0  0  0  0  0  0  0  0  0
    7.9694    2.0190   -4.1194 O   0  0  0  0  0  0  0  0  0  0  0  0
    7.5310    3.4519   -2.4523 N   0  0  0  0  0  0  0  0  0  0  0  0
    6.8433    3.3362   -1.2465 C   0  0  0  0  0  0  0  0  0  0  0  0
    6.8109    4.3630   -0.5843 O   0  0  0  0  0  0  0  0  0  0  0  0
    5.3036    2.1100    1.1619 C   0  0  0  0  0  0  0  0  0  0  0  0
    6.0601    3.0304    1.9209 C   0  0  0  0  0  0  0  0  0  0  0  0
    5.7021    3.2886    3.2627 C   0  0  0  0  0  0  0  0  0  0  0  0
    4.6525    2.5771    3.8808 C   0  0  0  0  0  0  0  0  0  0  0  0
    3.9790    1.5694    3.1722 C   0  0  0  0  0  0  0  0  0  0  0  0
    4.3327    1.3569    1.8322 C   0  0  0  0  0  0  0  0  0  0  0  0
    1.3124   -0.6225    2.4506 N   0  0  0  0  0  0  0  0  0  0  0  0
    0.4235   -1.3804    3.3506 C   0  0  0  0  0  0  0  0  0  0  0  0
   -1.0345   -0.9041    3.2756 C   0  0  0  0  0  0  0  0  0  0  0  0
   -1.7581   -1.6226    4.2890 O   0  0  0  0  0  0  0  0  0  0  0  0
   -3.1495   -1.2859    4.4402 C   0  0  0  0  0  0  0  0  0  0  0  0
   -3.9753   -1.8998    3.2881 C   0  0  0  0  0  0  0  0  0  0  0  0
   -4.3199   -3.2518    3.6479 O   0  0  0  0  0  0  0  0  0  0  0  0
   -4.7824   -4.1263    2.5966 C   0  0  0  0  0  0  0  0  0  0  0  0
   -6.0973   -3.6037    1.9631 C   0  0  0  0  0  0  0  0  0  0  0  0
   -5.7763   -2.5649    0.9776 N   0  0  0  0  0  0  0  0  0  0  0  0
   -6.6299   -1.9676    0.0638 C   0  0  0  0  0  0  0  0  0  0  0  0
   -8.0111   -2.2507   -0.0293 C   0  0  0  0  0  0  0  0  0  0  0  0
   -8.8185   -1.5945   -0.9927 C   0  0  0  0  0  0  0  0  0  0  0  0
   -8.2579   -0.6501   -1.8812 C   0  0  0  0  0  0  0  0  0  0  0  0
   -6.8859   -0.3837   -1.7767 C   0  0  0  0  0  0  0  0  0  0  0  0
   -6.0987   -1.0246   -0.8215 C   0  0  0  0  0  0  0  0  0  0  0  0
   -4.8155   -0.5448   -0.9253 C   0  0  0  0  0  0  0  0  0  0  0  0
   -3.9268   -0.6027   -0.0807 O   0  0  0  0  0  0  0  0  0  0  0  0
   -4.8002    0.4268   -1.9251 N   0  0  0  0  0  0  0  0  0  0  0  0
   -3.6180    1.2326   -2.2857 C   0  0  0  0  0  0  0  0  0  0  0  0
   -3.7949    2.7053   -1.8688 C   0  0  0  0  0  0  0  0  0  0  0  0
   -2.4736    3.4600   -2.1350 C   0  0  0  0  0  0  0  0  0  0  0  0
   -1.9294    3.2212   -3.5306 C   0  0  0  0  0  0  0  0  0  0  0  0
   -1.0596    3.9182   -4.0288 O   0  0  0  0  0  0  0  0  0  0  0  0
   -2.2703    2.0494   -4.2203 N   0  0  0  0  0  0  0  0  0  0  0  0
   -3.2265    1.1381   -3.7516 C   0  0  0  0  0  0  0  0  0  0  0  0
   -3.4301    0.1579   -4.4570 O   0  0  0  0  0  0  0  0  0  0  0  0
   -6.0849    0.4899   -2.4833 C   0  0  0  0  0  0  0  0  0  0  0  0
   -6.4362    1.3964   -3.2305 O   0  0  0  0  0  0  0  0  0  0  0  0
    3.9284   -1.1585    2.4447 H   0  0  0  0  0  0  0  0  0  0  0  0
    4.0130   -1.7383    0.7865 H   0  0  0  0  0  0  0  0  0  0  0  0
    4.4707   -0.1665   -1.0172 H   0  0  0  0  0  0  0  0  0  0  0  0
    5.0235    0.6756   -4.2366 H   0  0  0  0  0  0  0  0  0  0  0  0
    4.5009   -1.6868   -4.8364 H   0  0  0  0  0  0  0  0  0  0  0  0
    7.1063   -3.0687   -1.6931 H   0  0  0  0  0  0  0  0  0  0  0  0
    8.2700    4.1118   -2.6375 H   0  0  0  0  0  0  0  0  0  0  0  0
    6.9493    3.5066    1.5341 H   0  0  0  0  0  0  0  0  0  0  0  0
    6.2667    4.0206    3.8360 H   0  0  0  0  0  0  0  0  0  0  0  0
    4.4057    2.7740    4.9207 H   0  0  0  0  0  0  0  0  0  0  0  0
    3.2305    0.9608    3.6642 H   0  0  0  0  0  0  0  0  0  0  0  0
    1.4999    0.3536    2.6451 H   0  0  0  0  0  0  0  0  0  0  0  0
    0.7845   -1.2777    4.3825 H   0  0  0  0  0  0  0  0  0  0  0  0
    0.4535   -2.4485    3.0920 H   0  0  0  0  0  0  0  0  0  0  0  0
   -1.4261   -1.1131    2.2723 H   0  0  0  0  0  0  0  0  0  0  0  0
   -1.0859    0.1774    3.4565 H   0  0  0  0  0  0  0  0  0  0  0  0
   -3.2815   -0.1969    4.4472 H   0  0  0  0  0  0  0  0  0  0  0  0
   -3.5310   -1.6739    5.3932 H   0  0  0  0  0  0  0  0  0  0  0  0
   -3.4084   -1.8695    2.3498 H   0  0  0  0  0  0  0  0  0  0  0  0
   -4.8872   -1.3037    3.1560 H   0  0  0  0  0  0  0  0  0  0  0  0
   -4.0116   -4.2432    1.8226 H   0  0  0  0  0  0  0  0  0  0  0  0
   -4.9667   -5.1220    3.0183 H   0  0  0  0  0  0  0  0  0  0  0  0
   -6.6049   -4.4388    1.4628 H   0  0  0  0  0  0  0  0  0  0  0  0
   -6.7637   -3.2105    2.7429 H   0  0  0  0  0  0  0  0  0  0  0  0
   -4.8229   -2.2151    0.9671 H   0  0  0  0  0  0  0  0  0  0  0  0
   -8.4640   -2.9712    0.6436 H   0  0  0  0  0  0  0  0  0  0  0  0
   -9.8807   -1.8174   -1.0480 H   0  0  0  0  0  0  0  0  0  0  0  0
   -8.8685   -0.1388   -2.6231 H   0  0  0  0  0  0  0  0  0  0  0  0
   -2.7656    0.8278   -1.7233 H   0  0  0  0  0  0  0  0  0  0  0  0
   -4.0793    2.7716   -0.8092 H   0  0  0  0  0  0  0  0  0  0  0  0
   -4.6094    3.1585   -2.4526 H   0  0  0  0  0  0  0  0  0  0  0  0
   -2.6199    4.5373   -1.9857 H   0  0  0  0  0  0  0  0  0  0  0  0
   -1.7143    3.1467   -1.4071 H   0  0  0  0  0  0  0  0  0  0  0  0
   -1.8524    1.8823   -5.1242 H   0  0  0  0  0  0  0  0  0  0  0  0
  1  2  2  0  0  0  0
  2  3  1  0  0  0  0
  2 28  1  0  0  0  0
  3  4  1  0  0  0  0
  3 57  1  0  0  0  0
  3 58  1  0  0  0  0
  4  5  1  0  0  0  0
  4 27  1  0  0  0  0
  5  6  2  0  0  0  0
  5 59  1  0  0  0  0
  6  7  1  0  0  0  0
  6 22  1  0  0  0  0
  7  8  2  0  0  0  0
  7 20  1  0  0  0  0
  8  9  1  0  0  0  0
  8 17  1  0  0  0  0
  9 10  2  0  0  0  0
  9 15  1  0  0  0  0
 10 11  1  0  0  0  0
 10 60  1  0  0  0  0
 11 12  2  0  0  0  0
 11 61  1  0  0  0  0
 12 13  1  0  0  0  0
 12 14  1  0  0  0  0
 14 15  2  0  0  0  0
 14 62  1  0  0  0  0
 15 16  1  0  0  0  0
 17 18  2  0  0  0  0
 17 19  1  0  0  0  0
 19 20  1  0  0  0  0
 19 63  1  0  0  0  0
 20 21  2  0  0  0  0
 22 23  2  0  0  0  0
 22 27  1  0  0  0  0
 23 24  1  0  0  0  0
 23 64  1  0  0  0  0
 24 25  2  0  0  0  0
 24 65  1  0  0  0  0
 25 26  1  0  0  0  0
 25 66  1  0  0  0  0
 26 27  2  0  0  0  0
 26 67  1  0  0  0  0
 28 29  1  0  0  0  0
 28 68  1  0  0  0  0
 29 30  1  0  0  0  0
 29 69  1  0  0  0  0
 29 70  1  0  0  0  0
 30 31  1  0  0  0  0
 30 71  1  0  0  0  0
 30 72  1  0  0  0  0
 31 32  1  0  0  0  0
 32 33  1  0  0  0  0
 32 73  1  0  0  0  0
 32 74  1  0  0  0  0
 33 34  1  0  0  0  0
 33 75  1  0  0  0  0
 33 76  1  0  0  0  0
 34 35  1  0  0  0  0
 35 36  1  0  0  0  0
 35 77  1  0  0  0  0
 35 78  1  0  0  0  0
 36 37  1  0  0  0  0
 36 79  1  0  0  0  0
 36 80  1  0  0  0  0
 37 38  1  0  0  0  0
 37 81  1  0  0  0  0
 38 39  2  0  0  0  0
 38 43  1  0  0  0  0
 39 40  1  0  0  0  0
 39 82  1  0  0  0  0
 40 41  2  0  0  0  0
 40 83  1  0  0  0  0
 41 42  1  0  0  0  0
 41 84  1  0  0  0  0
 42 43  2  0  0  0  0
 42 55  1  0  0  0  0
 43 44  1  0  0  0  0
 44 45  2  0  0  0  0
 44 46  1  0  0  0  0
 46 47  1  0  0  0  0
 46 55  1  0  0  0  0
 47 48  1  0  0  0  0
 47 53  1  0  0  0  0
 47 85  1  0  0  0  0
 48 49  1  0  0  0  0
 48 86  1  0  0  0  0
 48 87  1  0  0  0  0
 49 50  1  0  0  0  0
 49 88  1  0  0  0  0
 49 89  1  0  0  0  0
 50 51  2  0  0  0  0
 50 52  1  0  0  0  0
 52 53  1  0  0  0  0
 52 90  1  0  0  0  0
 53 54  2  0  0  0  0
 55 56  2  0  0  0  0
M  END
$$$$
protac3895RUN2
  chem.cr 07102519423D
protac3895RUN2
 90 96  0  0  0  0  0  0  0  0999 V2000
    1.7683   -1.4411    1.0579 O   0  0  0  0  0  0  0  0  0  0  0  0
    2.7370   -2.0047    1.5536 C   0  0  0  0  0  0  0  0  0  0  0  0
    4.1025   -2.0200    0.9059 C   0  0  0  0  0  0  0  0  0  0  0  0
    5.0666   -1.0462    1.4550 N   0  0  0  0  0  0  0  0  0  0  0  0
    4.7859    0.3136    1.2811 C   0  0  0  0  0  0  0  0  0  0  0  0
    5.8988    1.0341    1.0036 C   0  0  0  0  0  0  0  0  0  0  0  0
    6.0138    2.3991    0.8928 C   0  0  0  0  0  0  0  0  0  0  0  0
    4.9907    3.2916    0.8752 C   0  0  0  0  0  0  0  0  0  0  0  0
    3.6432    2.9967    0.9430 C   0  0  0  0  0  0  0  0  0  0  0  0
    2.9745    3.1402    2.1722 C   0  0  0  0  0  0  0  0  0  0  0  0
    1.6159    2.7991    2.2891 C   0  0  0  0  0  0  0  0  0  0  0  0
    0.9158    2.3136    1.1745 C   0  0  0  0  0  0  0  0  0  0  0  0
   -0.7787    1.8666    1.3209 Cl  0  0  0  0  0  0  0  0  0  0  0  0
    1.5700    2.1823   -0.0617 C   0  0  0  0  0  0  0  0  0  0  0  0
    2.9281    2.5280   -0.1823 C   0  0  0  0  0  0  0  0  0  0  0  0
    3.7245    2.3269   -1.7421 Cl  0  0  0  0  0  0  0  0  0  0  0  0
    5.4228    4.5509    0.8129 C   0  0  0  0  0  0  0  0  0  0  0  0
    4.8569    5.6399    0.8198 O   0  0  0  0  0  0  0  0  0  0  0  0
    6.8002    4.5260    0.7465 N   0  0  0  0  0  0  0  0  0  0  0  0
    7.1309    3.1756    0.8536 C   0  0  0  0  0  0  0  0  0  0  0  0
    8.3265    2.9659    0.9912 O   0  0  0  0  0  0  0  0  0  0  0  0
    6.9235    0.0751    0.9020 C   0  0  0  0  0  0  0  0  0  0  0  0
    8.2208    0.1246    0.3413 C   0  0  0  0  0  0  0  0  0  0  0  0
    9.0182   -1.0403    0.3219 C   0  0  0  0  0  0  0  0  0  0  0  0
    8.5179   -2.2663    0.8026 C   0  0  0  0  0  0  0  0  0  0  0  0
    7.1874   -2.3510    1.2476 C   0  0  0  0  0  0  0  0  0  0  0  0
    6.4154   -1.1814    1.2509 C   0  0  0  0  0  0  0  0  0  0  0  0
    2.5283   -2.9490    2.5723 N   0  0  0  0  0  0  0  0  0  0  0  0
    1.2131   -3.5332    2.8911 C   0  0  0  0  0  0  0  0  0  0  0  0
    0.8772   -4.7257    1.9772 C   0  0  0  0  0  0  0  0  0  0  0  0
   -0.0709   -5.5500    2.6754 O   0  0  0  0  0  0  0  0  0  0  0  0
   -0.9380   -6.3489    1.8509 C   0  0  0  0  0  0  0  0  0  0  0  0
   -2.2860   -5.6083    1.6912 C   0  0  0  0  0  0  0  0  0  0  0  0
   -2.0502   -4.3468    1.0552 O   0  0  0  0  0  0  0  0  0  0  0  0
   -3.2202   -3.5843    0.7426 C   0  0  0  0  0  0  0  0  0  0  0  0
   -2.7241   -2.1892    0.3136 C   0  0  0  0  0  0  0  0  0  0  0  0
   -3.7394   -1.4885   -0.4949 N   0  0  0  0  0  0  0  0  0  0  0  0
   -3.5042   -0.8314   -1.7014 C   0  0  0  0  0  0  0  0  0  0  0  0
   -2.3746   -1.0807   -2.5245 C   0  0  0  0  0  0  0  0  0  0  0  0
   -2.1706   -0.3599   -3.7282 C   0  0  0  0  0  0  0  0  0  0  0  0
   -3.0894    0.6207   -4.1423 C   0  0  0  0  0  0  0  0  0  0  0  0
   -4.2112    0.8444   -3.3347 C   0  0  0  0  0  0  0  0  0  0  0  0
   -4.4161    0.1334   -2.1513 C   0  0  0  0  0  0  0  0  0  0  0  0
   -5.5898    0.5900   -1.5902 C   0  0  0  0  0  0  0  0  0  0  0  0
   -6.2009    0.1325   -0.6315 O   0  0  0  0  0  0  0  0  0  0  0  0
   -6.1397    1.5750   -2.4175 N   0  0  0  0  0  0  0  0  0  0  0  0
   -7.0337    2.6369   -1.9155 C   0  0  0  0  0  0  0  0  0  0  0  0
   -8.2262    2.8447   -2.8752 C   0  0  0  0  0  0  0  0  0  0  0  0
   -9.0551    4.0650   -2.4197 C   0  0  0  0  0  0  0  0  0  0  0  0
   -8.1930    5.3007   -2.3028 C   0  0  0  0  0  0  0  0  0  0  0  0
   -8.6250    6.4362   -2.4259 O   0  0  0  0  0  0  0  0  0  0  0  0
   -6.8974    5.1638   -1.7958 N   0  0  0  0  0  0  0  0  0  0  0  0
   -6.2657    3.9237   -1.6336 C   0  0  0  0  0  0  0  0  0  0  0  0
   -5.1684    3.9514   -1.0914 O   0  0  0  0  0  0  0  0  0  0  0  0
   -5.2497    1.7277   -3.4922 C   0  0  0  0  0  0  0  0  0  0  0  0
   -5.3952    2.5706   -4.3710 O   0  0  0  0  0  0  0  0  0  0  0  0
    4.5257   -3.0268    0.9846 H   0  0  0  0  0  0  0  0  0  0  0  0
    3.9884   -1.8076   -0.1629 H   0  0  0  0  0  0  0  0  0  0  0  0
    3.7620    0.6299    1.4581 H   0  0  0  0  0  0  0  0  0  0  0  0
    3.5161    3.5080    3.0393 H   0  0  0  0  0  0  0  0  0  0  0  0
    1.1095    2.9002    3.2455 H   0  0  0  0  0  0  0  0  0  0  0  0
    1.0232    1.8089   -0.9222 H   0  0  0  0  0  0  0  0  0  0  0  0
    7.4013    5.2765    1.0484 H   0  0  0  0  0  0  0  0  0  0  0  0
    8.6139    1.0109   -0.1364 H   0  0  0  0  0  0  0  0  0  0  0  0
   10.0229   -0.9912   -0.0862 H   0  0  0  0  0  0  0  0  0  0  0  0
    9.1436   -3.1555    0.7775 H   0  0  0  0  0  0  0  0  0  0  0  0
    6.7672   -3.3036    1.5518 H   0  0  0  0  0  0  0  0  0  0  0  0
    3.3397   -3.2914    3.0710 H   0  0  0  0  0  0  0  0  0  0  0  0
    0.4297   -2.7676    2.7837 H   0  0  0  0  0  0  0  0  0  0  0  0
    1.2119   -3.8643    3.9390 H   0  0  0  0  0  0  0  0  0  0  0  0
    1.7840   -5.3072    1.7658 H   0  0  0  0  0  0  0  0  0  0  0  0
    0.4825   -4.3510    1.0229 H   0  0  0  0  0  0  0  0  0  0  0  0
   -1.1251   -7.3132    2.3412 H   0  0  0  0  0  0  0  0  0  0  0  0
   -0.4972   -6.5515    0.8650 H   0  0  0  0  0  0  0  0  0  0  0  0
   -2.7392   -5.4610    2.6805 H   0  0  0  0  0  0  0  0  0  0  0  0
   -2.9658   -6.2248    1.0908 H   0  0  0  0  0  0  0  0  0  0  0  0
   -3.7766   -4.0638   -0.0738 H   0  0  0  0  0  0  0  0  0  0  0  0
   -3.8886   -3.4916    1.6104 H   0  0  0  0  0  0  0  0  0  0  0  0
   -2.5026   -1.5995    1.2139 H   0  0  0  0  0  0  0  0  0  0  0  0
   -1.7805   -2.2988   -0.2288 H   0  0  0  0  0  0  0  0  0  0  0  0
   -4.6188   -1.2541   -0.0439 H   0  0  0  0  0  0  0  0  0  0  0  0
   -1.6478   -1.8369   -2.2552 H   0  0  0  0  0  0  0  0  0  0  0  0
   -1.2939   -0.5627   -4.3396 H   0  0  0  0  0  0  0  0  0  0  0  0
   -2.9450    1.1866   -5.0597 H   0  0  0  0  0  0  0  0  0  0  0  0
   -7.4399    2.3049   -0.9505 H   0  0  0  0  0  0  0  0  0  0  0  0
   -8.8444    1.9376   -2.9075 H   0  0  0  0  0  0  0  0  0  0  0  0
   -7.8584    3.0184   -3.8960 H   0  0  0  0  0  0  0  0  0  0  0  0
   -9.8660    4.2574   -3.1330 H   0  0  0  0  0  0  0  0  0  0  0  0
   -9.5259    3.8712   -1.4482 H   0  0  0  0  0  0  0  0  0  0  0  0
   -6.3650    5.9981   -1.6014 H   0  0  0  0  0  0  0  0  0  0  0  0
  1  2  2  0  0  0  0
  2  3  1  0  0  0  0
  2 28  1  0  0  0  0
  3  4  1  0  0  0  0
  3 57  1  0  0  0  0
  3 58  1  0  0  0  0
  4  5  1  0  0  0  0
  4 27  1  0  0  0  0
  5  6  2  0  0  0  0
  5 59  1  0  0  0  0
  6  7  1  0  0  0  0
  6 22  1  0  0  0  0
  7  8  2  0  0  0  0
  7 20  1  0  0  0  0
  8  9  1  0  0  0  0
  8 17  1  0  0  0  0
  9 10  2  0  0  0  0
  9 15  1  0  0  0  0
 10 11  1  0  0  0  0
 10 60  1  0  0  0  0
 11 12  2  0  0  0  0
 11 61  1  0  0  0  0
 12 13  1  0  0  0  0
 12 14  1  0  0  0  0
 14 15  2  0  0  0  0
 14 62  1  0  0  0  0
 15 16  1  0  0  0  0
 17 18  2  0  0  0  0
 17 19  1  0  0  0  0
 19 20  1  0  0  0  0
 19 63  1  0  0  0  0
 20 21  2  0  0  0  0
 22 23  2  0  0  0  0
 22 27  1  0  0  0  0
 23 24  1  0  0  0  0
 23 64  1  0  0  0  0
 24 25  2  0  0  0  0
 24 65  1  0  0  0  0
 25 26  1  0  0  0  0
 25 66  1  0  0  0  0
 26 27  2  0  0  0  0
 26 67  1  0  0  0  0
 28 29  1  0  0  0  0
 28 68  1  0  0  0  0
 29 30  1  0  0  0  0
 29 69  1  0  0  0  0
 29 70  1  0  0  0  0
 30 31  1  0  0  0  0
 30 71  1  0  0  0  0
 30 72  1  0  0  0  0
 31 32  1  0  0  0  0
 32 33  1  0  0  0  0
 32 73  1  0  0  0  0
 32 74  1  0  0  0  0
 33 34  1  0  0  0  0
 33 75  1  0  0  0  0
 33 76  1  0  0  0  0
 34 35  1  0  0  0  0
 35 36  1  0  0  0  0
 35 77  1  0  0  0  0
 35 78  1  0  0  0  0
 36 37  1  0  0  0  0
 36 79  1  0  0  0  0
 36 80  1  0  0  0  0
 37 38  1  0  0  0  0
 37 81  1  0  0  0  0
 38 39  2  0  0  0  0
 38 43  1  0  0  0  0
 39 40  1  0  0  0  0
 39 82  1  0  0  0  0
 40 41  2  0  0  0  0
 40 83  1  0  0  0  0
 41 42  1  0  0  0  0
 41 84  1  0  0  0  0
 42 43  2  0  0  0  0
 42 55  1  0  0  0  0
 43 44  1  0  0  0  0
 44 45  2  0  0  0  0
 44 46  1  0  0  0  0
 46 47  1  0  0  0  0
 46 55  1  0  0  0  0
 47 48  1  0  0  0  0
 47 53  1  0  0  0  0
 47 85  1  0  0  0  0
 48 49  1  0  0  0  0
 48 86  1  0  0  0  0
 48 87  1  0  0  0  0
 49 50  1  0  0  0  0
 49 88  1  0  0  0  0
 49 89  1  0  0  0  0
 50 51  2  0  0  0  0
 50 52  1  0  0  0  0
 52 53  1  0  0  0  0
 52 90  1  0  0  0  0
 53 54  2  0  0  0  0
 55 56  2  0  0  0  0
M  END
$$$$
protac3895RUN2
  chem.cr 07102519423D
protac3895RUN2
 90 96  0  0  0  0  0  0  0  0999 V2000
    4.0283    0.0433   -3.2001 O   0  0  0  0  0  0  0  0  0  0  0  0
    3.1642    0.8649   -2.9189 C   0  0  0  0  0  0  0  0  0  0  0  0
    3.2842    1.8164   -1.7435 C   0  0  0  0  0  0  0  0  0  0  0  0
    2.3346    1.5079   -0.6541 N   0  0  0  0  0  0  0  0  0  0  0  0
    2.4087    0.2147   -0.1313 C   0  0  0  0  0  0  0  0  0  0  0  0
    1.1880   -0.3253    0.0921 C   0  0  0  0  0  0  0  0  0  0  0  0
    0.9142   -1.5480    0.6593 C   0  0  0  0  0  0  0  0  0  0  0  0
    1.8150   -2.5260    0.9172 C   0  0  0  0  0  0  0  0  0  0  0  0
    3.1424   -2.5301    0.5389 C   0  0  0  0  0  0  0  0  0  0  0  0
    4.1531   -2.1291    1.4362 C   0  0  0  0  0  0  0  0  0  0  0  0
    5.4856   -2.0234    0.9951 C   0  0  0  0  0  0  0  0  0  0  0  0
    5.8128   -2.3378   -0.3340 C   0  0  0  0  0  0  0  0  0  0  0  0
    7.4721   -2.1927   -0.8940 Cl  0  0  0  0  0  0  0  0  0  0  0  0
    4.8189   -2.7821   -1.2182 C   0  0  0  0  0  0  0  0  0  0  0  0
    3.4902   -2.8925   -0.7800 C   0  0  0  0  0  0  0  0  0  0  0  0
    2.2758   -3.5086   -1.8997 Cl  0  0  0  0  0  0  0  0  0  0  0  0
    1.2603   -3.5877    1.5000 C   0  0  0  0  0  0  0  0  0  0  0  0
    1.6989   -4.6651    1.8707 O   0  0  0  0  0  0  0  0  0  0  0  0
   -0.0920   -3.3400    1.6354 N   0  0  0  0  0  0  0  0  0  0  0  0
   -0.2608   -2.0588    1.1142 C   0  0  0  0  0  0  0  0  0  0  0  0
   -1.3972   -1.6383    1.2124 O   0  0  0  0  0  0  0  0  0  0  0  0
    0.2906    0.6543   -0.3720 C   0  0  0  0  0  0  0  0  0  0  0  0
   -1.0634    0.5863   -0.7488 C   0  0  0  0  0  0  0  0  0  0  0  0
   -1.6624    1.6653   -1.4294 C   0  0  0  0  0  0  0  0  0  0  0  0
   -0.9406    2.8393   -1.7162 C   0  0  0  0  0  0  0  0  0  0  0  0
    0.4210    2.9062   -1.3924 C   0  0  0  0  0  0  0  0  0  0  0  0
    1.0042    1.7950   -0.7686 C   0  0  0  0  0  0  0  0  0  0  0  0
    1.8717    0.6721   -3.4305 N   0  0  0  0  0  0  0  0  0  0  0  0
    1.2847   -0.6741   -3.4960 C   0  0  0  0  0  0  0  0  0  0  0  0
   -0.0837   -0.6765   -4.1968 C   0  0  0  0  0  0  0  0  0  0  0  0
   -0.6655   -1.9858   -4.0511 O   0  0  0  0  0  0  0  0  0  0  0  0
   -1.5060   -2.1908   -2.8994 C   0  0  0  0  0  0  0  0  0  0  0  0
   -2.9049   -1.5835   -3.2097 C   0  0  0  0  0  0  0  0  0  0  0  0
   -3.5634   -1.1132   -2.0160 O   0  0  0  0  0  0  0  0  0  0  0  0
   -3.9772   -2.1160   -1.0716 C   0  0  0  0  0  0  0  0  0  0  0  0
   -4.9597   -1.4693   -0.0635 C   0  0  0  0  0  0  0  0  0  0  0  0
   -4.2680   -0.6096    0.9147 N   0  0  0  0  0  0  0  0  0  0  0  0
   -4.0904    0.7687    0.8270 C   0  0  0  0  0  0  0  0  0  0  0  0
   -4.8150    1.6004   -0.0605 C   0  0  0  0  0  0  0  0  0  0  0  0
   -4.5069    2.9776   -0.1782 C   0  0  0  0  0  0  0  0  0  0  0  0
   -3.4576    3.5472    0.5725 C   0  0  0  0  0  0  0  0  0  0  0  0
   -2.7631    2.7165    1.4619 C   0  0  0  0  0  0  0  0  0  0  0  0
   -3.1020    1.3786    1.6124 C   0  0  0  0  0  0  0  0  0  0  0  0
   -2.2745    0.8207    2.5597 C   0  0  0  0  0  0  0  0  0  0  0  0
   -2.6414   -0.0162    3.3755 O   0  0  0  0  0  0  0  0  0  0  0  0
   -1.3265    1.7868    2.9424 N   0  0  0  0  0  0  0  0  0  0  0  0
   -0.3557    1.5657    4.0566 C   0  0  0  0  0  0  0  0  0  0  0  0
    0.7356    2.6504    4.2269 C   0  0  0  0  0  0  0  0  0  0  0  0
    1.7633    2.5485    3.0741 C   0  0  0  0  0  0  0  0  0  0  0  0
    2.3637    1.1657    2.9940 C   0  0  0  0  0  0  0  0  0  0  0  0
    3.5336    0.9471    2.7180 O   0  0  0  0  0  0  0  0  0  0  0  0
    1.5905    0.0698    3.3901 N   0  0  0  0  0  0  0  0  0  0  0  0
    0.3135    0.1897    3.9611 C   0  0  0  0  0  0  0  0  0  0  0  0
   -0.0405   -0.7797    4.6192 O   0  0  0  0  0  0  0  0  0  0  0  0
   -1.6801    2.9784    2.2684 C   0  0  0  0  0  0  0  0  0  0  0  0
   -1.0360    4.0206    2.3114 O   0  0  0  0  0  0  0  0  0  0  0  0
    4.3012    1.7456   -1.3452 H   0  0  0  0  0  0  0  0  0  0  0  0
    3.1327    2.8456   -2.0847 H   0  0  0  0  0  0  0  0  0  0  0  0
    3.4021   -0.1681    0.0642 H   0  0  0  0  0  0  0  0  0  0  0  0
    3.8997   -1.8639    2.4589 H   0  0  0  0  0  0  0  0  0  0  0  0
    6.2599   -1.6846    1.6790 H   0  0  0  0  0  0  0  0  0  0  0  0
    5.0736   -3.0327   -2.2449 H   0  0  0  0  0  0  0  0  0  0  0  0
   -0.6273   -3.6675    2.4248 H   0  0  0  0  0  0  0  0  0  0  0  0
   -1.6645   -0.2904   -0.6005 H   0  0  0  0  0  0  0  0  0  0  0  0
   -2.6958    1.5780   -1.7518 H   0  0  0  0  0  0  0  0  0  0  0  0
   -1.4279    3.6654   -2.2272 H   0  0  0  0  0  0  0  0  0  0  0  0
    1.0145    3.7718   -1.6701 H   0  0  0  0  0  0  0  0  0  0  0  0
    1.2120    1.4171   -3.2410 H   0  0  0  0  0  0  0  0  0  0  0  0
    1.1748   -1.0446   -2.4718 H   0  0  0  0  0  0  0  0  0  0  0  0
    1.9681   -1.3486   -4.0266 H   0  0  0  0  0  0  0  0  0  0  0  0
    0.0652   -0.4415   -5.2582 H   0  0  0  0  0  0  0  0  0  0  0  0
   -0.7299    0.0991   -3.7631 H   0  0  0  0  0  0  0  0  0  0  0  0
   -1.0526   -1.7423   -2.0114 H   0  0  0  0  0  0  0  0  0  0  0  0
   -1.6194   -3.2654   -2.7021 H   0  0  0  0  0  0  0  0  0  0  0  0
   -3.5149   -2.3419   -3.7171 H   0  0  0  0  0  0  0  0  0  0  0  0
   -2.7926   -0.7455   -3.9073 H   0  0  0  0  0  0  0  0  0  0  0  0
   -4.4998   -2.9313   -1.5921 H   0  0  0  0  0  0  0  0  0  0  0  0
   -3.1156   -2.5464   -0.5430 H   0  0  0  0  0  0  0  0  0  0  0  0
   -5.7335   -0.9216   -0.6100 H   0  0  0  0  0  0  0  0  0  0  0  0
   -5.4675   -2.2731    0.4824 H   0  0  0  0  0  0  0  0  0  0  0  0
   -3.6701   -1.0702    1.5974 H   0  0  0  0  0  0  0  0  0  0  0  0
   -5.6045    1.1864   -0.6794 H   0  0  0  0  0  0  0  0  0  0  0  0
   -5.0630    3.5929   -0.8822 H   0  0  0  0  0  0  0  0  0  0  0  0
   -3.1801    4.5914    0.4587 H   0  0  0  0  0  0  0  0  0  0  0  0
   -0.9565    1.5490    4.9748 H   0  0  0  0  0  0  0  0  0  0  0  0
    1.2559    2.4704    5.1763 H   0  0  0  0  0  0  0  0  0  0  0  0
    0.3030    3.6538    4.3035 H   0  0  0  0  0  0  0  0  0  0  0  0
    1.2878    2.7752    2.1129 H   0  0  0  0  0  0  0  0  0  0  0  0
    2.5620    3.2864    3.2108 H   0  0  0  0  0  0  0  0  0  0  0  0
    2.0206   -0.8432    3.4031 H   0  0  0  0  0  0  0  0  0  0  0  0
  1  2  2  0  0  0  0
  2  3  1  0  0  0  0
  2 28  1  0  0  0  0
  3  4  1  0  0  0  0
  3 57  1  0  0  0  0
  3 58  1  0  0  0  0
  4  5  1  0  0  0  0
  4 27  1  0  0  0  0
  5  6  2  0  0  0  0
  5 59  1  0  0  0  0
  6  7  1  0  0  0  0
  6 22  1  0  0  0  0
  7  8  2  0  0  0  0
  7 20  1  0  0  0  0
  8  9  1  0  0  0  0
  8 17  1  0  0  0  0
  9 10  2  0  0  0  0
  9 15  1  0  0  0  0
 10 11  1  0  0  0  0
 10 60  1  0  0  0  0
 11 12  2  0  0  0  0
 11 61  1  0  0  0  0
 12 13  1  0  0  0  0
 12 14  1  0  0  0  0
 14 15  2  0  0  0  0
 14 62  1  0  0  0  0
 15 16  1  0  0  0  0
 17 18  2  0  0  0  0
 17 19  1  0  0  0  0
 19 20  1  0  0  0  0
 19 63  1  0  0  0  0
 20 21  2  0  0  0  0
 22 23  2  0  0  0  0
 22 27  1  0  0  0  0
 23 24  1  0  0  0  0
 23 64  1  0  0  0  0
 24 25  2  0  0  0  0
 24 65  1  0  0  0  0
 25 26  1  0  0  0  0
 25 66  1  0  0  0  0
 26 27  2  0  0  0  0
 26 67  1  0  0  0  0
 28 29  1  0  0  0  0
 28 68  1  0  0  0  0
 29 30  1  0  0  0  0
 29 69  1  0  0  0  0
 29 70  1  0  0  0  0
 30 31  1  0  0  0  0
 30 71  1  0  0  0  0
 30 72  1  0  0  0  0
 31 32  1  0  0  0  0
 32 33  1  0  0  0  0
 32 73  1  0  0  0  0
 32 74  1  0  0  0  0
 33 34  1  0  0  0  0
 33 75  1  0  0  0  0
 33 76  1  0  0  0  0
 34 35  1  0  0  0  0
 35 36  1  0  0  0  0
 35 77  1  0  0  0  0
 35 78  1  0  0  0  0
 36 37  1  0  0  0  0
 36 79  1  0  0  0  0
 36 80  1  0  0  0  0
 37 38  1  0  0  0  0
 37 81  1  0  0  0  0
 38 39  2  0  0  0  0
 38 43  1  0  0  0  0
 39 40  1  0  0  0  0
 39 82  1  0  0  0  0
 40 41  2  0  0  0  0
 40 83  1  0  0  0  0
 41 42  1  0  0  0  0
 41 84  1  0  0  0  0
 42 43  2  0  0  0  0
 42 55  1  0  0  0  0
 43 44  1  0  0  0  0
 44 45  2  0  0  0  0
 44 46  1  0  0  0  0
 46 47  1  0  0  0  0
 46 55  1  0  0  0  0
 47 48  1  0  0  0  0
 47 53  1  0  0  0  0
 47 85  1  0  0  0  0
 48 49  1  0  0  0  0
 48 86  1  0  0  0  0
 48 87  1  0  0  0  0
 49 50  1  0  0  0  0
 49 88  1  0  0  0  0
 49 89  1  0  0  0  0
 50 51  2  0  0  0  0
 50 52  1  0  0  0  0
 52 53  1  0  0  0  0
 52 90  1  0  0  0  0
 53 54  2  0  0  0  0
 55 56  2  0  0  0  0
M  END
$$$$
protac3895RUN2
  chem.cr 07102519423D
protac3895RUN2
 90 96  0  0  0  0  0  0  0  0999 V2000
    4.8285   -2.9344    1.0625 O   0  0  0  0  0  0  0  0  0  0  0  0
    4.9456   -1.7364    0.8379 C   0  0  0  0  0  0  0  0  0  0  0  0
    6.1311   -1.1521    0.0892 C   0  0  0  0  0  0  0  0  0  0  0  0
    6.0248    0.2851   -0.2564 N   0  0  0  0  0  0  0  0  0  0  0  0
    6.0992    1.2348    0.7739 C   0  0  0  0  0  0  0  0  0  0  0  0
    5.1577    2.1951    0.6223 C   0  0  0  0  0  0  0  0  0  0  0  0
    4.7865    3.1544    1.5281 C   0  0  0  0  0  0  0  0  0  0  0  0
    5.4470    3.4810    2.6642 C   0  0  0  0  0  0  0  0  0  0  0  0
    6.6604    2.9718    3.0815 C   0  0  0  0  0  0  0  0  0  0  0  0
    7.8274    3.3440    2.3888 C   0  0  0  0  0  0  0  0  0  0  0  0
    9.0701    2.8033    2.7496 C   0  0  0  0  0  0  0  0  0  0  0  0
    9.1585    1.9069    3.8254 C   0  0  0  0  0  0  0  0  0  0  0  0
   10.7183    1.2246    4.2643 Cl  0  0  0  0  0  0  0  0  0  0  0  0
    8.0048    1.5511    4.5438 C   0  0  0  0  0  0  0  0  0  0  0  0
    6.7544    2.0706    4.1662 C   0  0  0  0  0  0  0  0  0  0  0  0
    5.3123    1.5470    5.0392 Cl  0  0  0  0  0  0  0  0  0  0  0  0
    4.8070    4.4180    3.3635 C   0  0  0  0  0  0  0  0  0  0  0  0
    5.0427    4.9871    4.4209 O   0  0  0  0  0  0  0  0  0  0  0  0
    3.6606    4.7618    2.6723 N   0  0  0  0  0  0  0  0  0  0  0  0
    3.6690    3.9277    1.5546 C   0  0  0  0  0  0  0  0  0  0  0  0
    2.6445    3.9659    0.8887 O   0  0  0  0  0  0  0  0  0  0  0  0
    4.5826    1.9421   -0.6339 C   0  0  0  0  0  0  0  0  0  0  0  0
    3.8121    2.7523   -1.4929 C   0  0  0  0  0  0  0  0  0  0  0  0
    3.4552    2.2684   -2.7705 C   0  0  0  0  0  0  0  0  0  0  0  0
    3.9143    1.0140   -3.2240 C   0  0  0  0  0  0  0  0  0  0  0  0
    4.7726    0.2478   -2.4164 C   0  0  0  0  0  0  0  0  0  0  0  0
    5.0975    0.7489   -1.1482 C   0  0  0  0  0  0  0  0  0  0  0  0
    3.9916   -0.8436    1.3531 N   0  0  0  0  0  0  0  0  0  0  0  0
    2.6460   -1.2470    1.7767 C   0  0  0  0  0  0  0  0  0  0  0  0
    1.6653   -1.1890    0.5987 C   0  0  0  0  0  0  0  0  0  0  0  0
    0.3891   -1.6128    1.0912 O   0  0  0  0  0  0  0  0  0  0  0  0
   -0.5914   -1.9400    0.0938 C   0  0  0  0  0  0  0  0  0  0  0  0
   -1.1010   -0.6542   -0.6074 C   0  0  0  0  0  0  0  0  0  0  0  0
   -1.8277   -1.0214   -1.7957 O   0  0  0  0  0  0  0  0  0  0  0  0
   -3.0320   -1.7699   -1.5890 C   0  0  0  0  0  0  0  0  0  0  0  0
   -3.6837   -2.0052   -2.9608 C   0  0  0  0  0  0  0  0  0  0  0  0
   -4.4581   -3.2619   -2.9770 N   0  0  0  0  0  0  0  0  0  0  0  0
   -5.8471   -3.2741   -2.9817 C   0  0  0  0  0  0  0  0  0  0  0  0
   -6.5411   -3.8144   -4.0866 C   0  0  0  0  0  0  0  0  0  0  0  0
   -7.9562   -3.7936   -4.1444 C   0  0  0  0  0  0  0  0  0  0  0  0
   -8.7061   -3.2222   -3.0970 C   0  0  0  0  0  0  0  0  0  0  0  0
   -8.0070   -2.7058   -1.9997 C   0  0  0  0  0  0  0  0  0  0  0  0
   -6.6163   -2.7537   -1.9277 C   0  0  0  0  0  0  0  0  0  0  0  0
   -6.2269   -2.2784   -0.6954 C   0  0  0  0  0  0  0  0  0  0  0  0
   -5.3851   -2.8252    0.0064 O   0  0  0  0  0  0  0  0  0  0  0  0
   -7.3737   -1.7903   -0.0504 N   0  0  0  0  0  0  0  0  0  0  0  0
   -7.3490   -0.7277    0.9909 C   0  0  0  0  0  0  0  0  0  0  0  0
   -8.1860    0.5104    0.5928 C   0  0  0  0  0  0  0  0  0  0  0  0
   -7.5745    1.1747   -0.6656 C   0  0  0  0  0  0  0  0  0  0  0  0
   -6.0691    1.3441   -0.5799 C   0  0  0  0  0  0  0  0  0  0  0  0
   -5.4313    2.0446   -1.3501 O   0  0  0  0  0  0  0  0  0  0  0  0
   -5.3492    0.6915    0.4309 N   0  0  0  0  0  0  0  0  0  0  0  0
   -5.9384   -0.2391    1.2999 C   0  0  0  0  0  0  0  0  0  0  0  0
   -5.3602   -0.4446    2.3576 O   0  0  0  0  0  0  0  0  0  0  0  0
   -8.4741   -2.1182   -0.8514 C   0  0  0  0  0  0  0  0  0  0  0  0
   -9.6283   -2.0802   -0.4396 O   0  0  0  0  0  0  0  0  0  0  0  0
    7.0357   -1.3124    0.6869 H   0  0  0  0  0  0  0  0  0  0  0  0
    6.2579   -1.7211   -0.8380 H   0  0  0  0  0  0  0  0  0  0  0  0
    6.7501    1.0139    1.6137 H   0  0  0  0  0  0  0  0  0  0  0  0
    7.7589    4.0401    1.5575 H   0  0  0  0  0  0  0  0  0  0  0  0
    9.9639    3.0778    2.1966 H   0  0  0  0  0  0  0  0  0  0  0  0
    8.0787    0.8667    5.3852 H   0  0  0  0  0  0  0  0  0  0  0  0
    2.8087    5.0429    3.1324 H   0  0  0  0  0  0  0  0  0  0  0  0
    3.5356    3.7648   -1.2337 H   0  0  0  0  0  0  0  0  0  0  0  0
    2.8483    2.8884   -3.4258 H   0  0  0  0  0  0  0  0  0  0  0  0
    3.6495    0.6681   -4.2192 H   0  0  0  0  0  0  0  0  0  0  0  0
    5.1998   -0.6811   -2.7833 H   0  0  0  0  0  0  0  0  0  0  0  0
    4.1463    0.1410    1.1571 H   0  0  0  0  0  0  0  0  0  0  0  0
    2.2964   -0.5762    2.5715 H   0  0  0  0  0  0  0  0  0  0  0  0
    2.6711   -2.2680    2.1826 H   0  0  0  0  0  0  0  0  0  0  0  0
    2.0186   -1.8575   -0.1961 H   0  0  0  0  0  0  0  0  0  0  0  0
    1.6197   -0.1658    0.2051 H   0  0  0  0  0  0  0  0  0  0  0  0
   -1.4365   -2.4474    0.5771 H   0  0  0  0  0  0  0  0  0  0  0  0
   -0.1654   -2.6270   -0.6489 H   0  0  0  0  0  0  0  0  0  0  0  0
   -0.2561   -0.0159   -0.8902 H   0  0  0  0  0  0  0  0  0  0  0  0
   -1.7387   -0.0845    0.0809 H   0  0  0  0  0  0  0  0  0  0  0  0
   -2.8164   -2.7402   -1.1237 H   0  0  0  0  0  0  0  0  0  0  0  0
   -3.7190   -1.2165   -0.9374 H   0  0  0  0  0  0  0  0  0  0  0  0
   -4.3257   -1.1485   -3.2083 H   0  0  0  0  0  0  0  0  0  0  0  0
   -2.8940   -2.0574   -3.7231 H   0  0  0  0  0  0  0  0  0  0  0  0
   -4.0119   -4.0547   -3.4181 H   0  0  0  0  0  0  0  0  0  0  0  0
   -5.9819   -4.2421   -4.9136 H   0  0  0  0  0  0  0  0  0  0  0  0
   -8.4685   -4.2164   -5.0053 H   0  0  0  0  0  0  0  0  0  0  0  0
   -9.7921   -3.1917   -3.1283 H   0  0  0  0  0  0  0  0  0  0  0  0
   -7.7602   -1.1591    1.9123 H   0  0  0  0  0  0  0  0  0  0  0  0
   -8.1717    1.2261    1.4268 H   0  0  0  0  0  0  0  0  0  0  0  0
   -9.2392    0.2509    0.4301 H   0  0  0  0  0  0  0  0  0  0  0  0
   -7.8002    0.5750   -1.5560 H   0  0  0  0  0  0  0  0  0  0  0  0
   -8.0411    2.1537   -0.8333 H   0  0  0  0  0  0  0  0  0  0  0  0
   -4.3833    0.9428    0.5781 H   0  0  0  0  0  0  0  0  0  0  0  0
  1  2  2  0  0  0  0
  2  3  1  0  0  0  0
  2 28  1  0  0  0  0
  3  4  1  0  0  0  0
  3 57  1  0  0  0  0
  3 58  1  0  0  0  0
  4  5  1  0  0  0  0
  4 27  1  0  0  0  0
  5  6  2  0  0  0  0
  5 59  1  0  0  0  0
  6  7  1  0  0  0  0
  6 22  1  0  0  0  0
  7  8  2  0  0  0  0
  7 20  1  0  0  0  0
  8  9  1  0  0  0  0
  8 17  1  0  0  0  0
  9 10  2  0  0  0  0
  9 15  1  0  0  0  0
 10 11  1  0  0  0  0
 10 60  1  0  0  0  0
 11 12  2  0  0  0  0
 11 61  1  0  0  0  0
 12 13  1  0  0  0  0
 12 14  1  0  0  0  0
 14 15  2  0  0  0  0
 14 62  1  0  0  0  0
 15 16  1  0  0  0  0
 17 18  2  0  0  0  0
 17 19  1  0  0  0  0
 19 20  1  0  0  0  0
 19 63  1  0  0  0  0
 20 21  2  0  0  0  0
 22 23  2  0  0  0  0
 22 27  1  0  0  0  0
 23 24  1  0  0  0  0
 23 64  1  0  0  0  0
 24 25  2  0  0  0  0
 24 65  1  0  0  0  0
 25 26  1  0  0  0  0
 25 66  1  0  0  0  0
 26 27  2  0  0  0  0
 26 67  1  0  0  0  0
 28 29  1  0  0  0  0
 28 68  1  0  0  0  0
 29 30  1  0  0  0  0
 29 69  1  0  0  0  0
 29 70  1  0  0  0  0
 30 31  1  0  0  0  0
 30 71  1  0  0  0  0
 30 72  1  0  0  0  0
 31 32  1  0  0  0  0
 32 33  1  0  0  0  0
 32 73  1  0  0  0  0
 32 74  1  0  0  0  0
 33 34  1  0  0  0  0
 33 75  1  0  0  0  0
 33 76  1  0  0  0  0
 34 35  1  0  0  0  0
 35 36  1  0  0  0  0
 35 77  1  0  0  0  0
 35 78  1  0  0  0  0
 36 37  1  0  0  0  0
 36 79  1  0  0  0  0
 36 80  1  0  0  0  0
 37 38  1  0  0  0  0
 37 81  1  0  0  0  0
 38 39  2  0  0  0  0
 38 43  1  0  0  0  0
 39 40  1  0  0  0  0
 39 82  1  0  0  0  0
 40 41  2  0  0  0  0
 40 83  1  0  0  0  0
 41 42  1  0  0  0  0
 41 84  1  0  0  0  0
 42 43  2  0  0  0  0
 42 55  1  0  0  0  0
 43 44  1  0  0  0  0
 44 45  2  0  0  0  0
 44 46  1  0  0  0  0
 46 47  1  0  0  0  0
 46 55  1  0  0  0  0
 47 48  1  0  0  0  0
 47 53  1  0  0  0  0
 47 85  1  0  0  0  0
 48 49  1  0  0  0  0
 48 86  1  0  0  0  0
 48 87  1  0  0  0  0
 49 50  1  0  0  0  0
 49 88  1  0  0  0  0
 49 89  1  0  0  0  0
 50 51  2  0  0  0  0
 50 52  1  0  0  0  0
 52 53  1  0  0  0  0
 52 90  1  0  0  0  0
 53 54  2  0  0  0  0
 55 56  2  0  0  0  0
M  END
$$$$
protac3895RUN2
  chem.cr 07102519423D
protac3895RUN2
 90 96  0  0  0  0  0  0  0  0999 V2000
    4.3191   -2.6556    2.7478 O   0  0  0  0  0  0  0  0  0  0  0  0
    4.4225   -1.5368    2.2641 C   0  0  0  0  0  0  0  0  0  0  0  0
    5.7742   -0.8682    2.0614 C   0  0  0  0  0  0  0  0  0  0  0  0
    5.7815    0.5263    1.5625 N   0  0  0  0  0  0  0  0  0  0  0  0
    6.3398    1.6163    2.2435 C   0  0  0  0  0  0  0  0  0  0  0  0
    6.0334    2.7701    1.6023 C   0  0  0  0  0  0  0  0  0  0  0  0
    6.2617    4.0503    2.0278 C   0  0  0  0  0  0  0  0  0  0  0  0
    7.0933    4.4313    3.0254 C   0  0  0  0  0  0  0  0  0  0  0  0
    7.9744    3.6158    3.7117 C   0  0  0  0  0  0  0  0  0  0  0  0
    9.1096    3.1296    3.0325 C   0  0  0  0  0  0  0  0  0  0  0  0
   10.0448    2.3172    3.6945 C   0  0  0  0  0  0  0  0  0  0  0  0
    9.8559    1.9926    5.0463 C   0  0  0  0  0  0  0  0  0  0  0  0
   11.0377    0.9923    5.8797 Cl  0  0  0  0  0  0  0  0  0  0  0  0
    8.7292    2.4738    5.7355 C   0  0  0  0  0  0  0  0  0  0  0  0
    7.7878    3.2831    5.0719 C   0  0  0  0  0  0  0  0  0  0  0  0
    6.3795    3.8560    5.9649 Cl  0  0  0  0  0  0  0  0  0  0  0  0
    7.0572    5.7507    3.2230 C   0  0  0  0  0  0  0  0  0  0  0  0
    7.6454    6.5057    3.9871 O   0  0  0  0  0  0  0  0  0  0  0  0
    6.1720    6.2974    2.3129 N   0  0  0  0  0  0  0  0  0  0  0  0
    5.6713    5.2022    1.6120 C   0  0  0  0  0  0  0  0  0  0  0  0
    4.7479    5.4610    0.8541 O   0  0  0  0  0  0  0  0  0  0  0  0
    5.3809    2.3770    0.4197 C   0  0  0  0  0  0  0  0  0  0  0  0
    5.1263    3.0784   -0.7795 C   0  0  0  0  0  0  0  0  0  0  0  0
    4.5721    2.3911   -1.8810 C   0  0  0  0  0  0  0  0  0  0  0  0
    4.3548    0.9985   -1.8324 C   0  0  0  0  0  0  0  0  0  0  0  0
    4.7237    0.2732   -0.6872 C   0  0  0  0  0  0  0  0  0  0  0  0
    5.2217    0.9893    0.4075 C   0  0  0  0  0  0  0  0  0  0  0  0
    3.2649   -0.9213    1.7517 N   0  0  0  0  0  0  0  0  0  0  0  0
    1.9948   -1.6381    1.5414 C   0  0  0  0  0  0  0  0  0  0  0  0
    1.2167   -1.1156    0.3186 C   0  0  0  0  0  0  0  0  0  0  0  0
    0.0637   -1.9622    0.1679 O   0  0  0  0  0  0  0  0  0  0  0  0
    0.0120   -2.7724   -1.0220 C   0  0  0  0  0  0  0  0  0  0  0  0
   -0.4768   -1.9054   -2.2122 C   0  0  0  0  0  0  0  0  0  0  0  0
   -1.9055   -2.0327   -2.3612 O   0  0  0  0  0  0  0  0  0  0  0  0
   -2.7143   -1.5283   -1.2825 C   0  0  0  0  0  0  0  0  0  0  0  0
   -4.2034   -1.6602   -1.6772 C   0  0  0  0  0  0  0  0  0  0  0  0
   -4.5065   -3.0456   -2.0749 N   0  0  0  0  0  0  0  0  0  0  0  0
   -5.5925   -3.4178   -2.8649 C   0  0  0  0  0  0  0  0  0  0  0  0
   -5.3575   -4.3117   -3.9341 C   0  0  0  0  0  0  0  0  0  0  0  0
   -6.4009   -4.7460   -4.7838 C   0  0  0  0  0  0  0  0  0  0  0  0
   -7.7170   -4.2904   -4.5854 C   0  0  0  0  0  0  0  0  0  0  0  0
   -7.9515   -3.4148   -3.5204 C   0  0  0  0  0  0  0  0  0  0  0  0
   -6.9248   -2.9849   -2.6700 C   0  0  0  0  0  0  0  0  0  0  0  0
   -7.5000   -2.1890   -1.6944 C   0  0  0  0  0  0  0  0  0  0  0  0
   -7.0740   -2.0043   -0.5636 O   0  0  0  0  0  0  0  0  0  0  0  0
   -8.8823   -2.1028   -1.9609 N   0  0  0  0  0  0  0  0  0  0  0  0
   -9.9020   -1.2567   -1.2883 C   0  0  0  0  0  0  0  0  0  0  0  0
  -10.1879    0.0226   -2.1056 C   0  0  0  0  0  0  0  0  0  0  0  0
   -8.9939    0.9971   -1.9909 C   0  0  0  0  0  0  0  0  0  0  0  0
   -8.5778    1.2390   -0.5539 C   0  0  0  0  0  0  0  0  0  0  0  0
   -7.9841    2.2430   -0.1914 O   0  0  0  0  0  0  0  0  0  0  0  0
   -8.9662    0.3293    0.4412 N   0  0  0  0  0  0  0  0  0  0  0  0
   -9.5863   -0.8992    0.1604 C   0  0  0  0  0  0  0  0  0  0  0  0
  -10.0467   -1.5058    1.1186 O   0  0  0  0  0  0  0  0  0  0  0  0
   -9.1373   -2.8799   -3.0874 C   0  0  0  0  0  0  0  0  0  0  0  0
  -10.2482   -2.9613   -3.6012 O   0  0  0  0  0  0  0  0  0  0  0  0
    6.3001   -0.8993    3.0222 H   0  0  0  0  0  0  0  0  0  0  0  0
    6.3549   -1.4798    1.3611 H   0  0  0  0  0  0  0  0  0  0  0  0
    6.8240    1.4486    3.2004 H   0  0  0  0  0  0  0  0  0  0  0  0
    9.2629    3.3934    1.9894 H   0  0  0  0  0  0  0  0  0  0  0  0
   10.9202    1.9516    3.1644 H   0  0  0  0  0  0  0  0  0  0  0  0
    8.5911    2.2245    6.7852 H   0  0  0  0  0  0  0  0  0  0  0  0
    5.6440    7.1401    2.4739 H   0  0  0  0  0  0  0  0  0  0  0  0
    5.4015    4.1167   -0.9096 H   0  0  0  0  0  0  0  0  0  0  0  0
    4.3560    2.9374   -2.7952 H   0  0  0  0  0  0  0  0  0  0  0  0
    3.9609    0.4781   -2.7006 H   0  0  0  0  0  0  0  0  0  0  0  0
    4.6503   -0.8104   -0.6644 H   0  0  0  0  0  0  0  0  0  0  0  0
    3.3537    0.0326    1.4176 H   0  0  0  0  0  0  0  0  0  0  0  0
    1.3702   -1.5326    2.4396 H   0  0  0  0  0  0  0  0  0  0  0  0
    2.1935   -2.7105    1.4068 H   0  0  0  0  0  0  0  0  0  0  0  0
    1.8611   -1.1401   -0.5724 H   0  0  0  0  0  0  0  0  0  0  0  0
    0.9093   -0.0760    0.4894 H   0  0  0  0  0  0  0  0  0  0  0  0
   -0.6738   -3.6170   -0.8805 H   0  0  0  0  0  0  0  0  0  0  0  0
    1.0034   -3.1897   -1.2456 H   0  0  0  0  0  0  0  0  0  0  0  0
    0.0092   -2.2597   -3.1294 H   0  0  0  0  0  0  0  0  0  0  0  0
   -0.1898   -0.8549   -2.0709 H   0  0  0  0  0  0  0  0  0  0  0  0
   -2.5362   -2.1014   -0.3625 H   0  0  0  0  0  0  0  0  0  0  0  0
   -2.4756   -0.4763   -1.0713 H   0  0  0  0  0  0  0  0  0  0  0  0
   -4.8049   -1.3726   -0.8071 H   0  0  0  0  0  0  0  0  0  0  0  0
   -4.4327   -0.9678   -2.4974 H   0  0  0  0  0  0  0  0  0  0  0  0
   -3.6878   -3.6320   -2.1751 H   0  0  0  0  0  0  0  0  0  0  0  0
   -4.3477   -4.6699   -4.1157 H   0  0  0  0  0  0  0  0  0  0  0  0
   -6.1863   -5.4386   -5.5937 H   0  0  0  0  0  0  0  0  0  0  0  0
   -8.5311   -4.6216   -5.2253 H   0  0  0  0  0  0  0  0  0  0  0  0
  -10.8287   -1.8466   -1.2557 H   0  0  0  0  0  0  0  0  0  0  0  0
  -11.0933    0.5009   -1.7068 H   0  0  0  0  0  0  0  0  0  0  0  0
  -10.3927   -0.2285   -3.1570 H   0  0  0  0  0  0  0  0  0  0  0  0
   -8.1324    0.5946   -2.5380 H   0  0  0  0  0  0  0  0  0  0  0  0
   -9.2463    1.9555   -2.4621 H   0  0  0  0  0  0  0  0  0  0  0  0
   -8.7413    0.5430    1.4026 H   0  0  0  0  0  0  0  0  0  0  0  0
  1  2  2  0  0  0  0
  2  3  1  0  0  0  0
  2 28  1  0  0  0  0
  3  4  1  0  0  0  0
  3 57  1  0  0  0  0
  3 58  1  0  0  0  0
  4  5  1  0  0  0  0
  4 27  1  0  0  0  0
  5  6  2  0  0  0  0
  5 59  1  0  0  0  0
  6  7  1  0  0  0  0
  6 22  1  0  0  0  0
  7  8  2  0  0  0  0
  7 20  1  0  0  0  0
  8  9  1  0  0  0  0
  8 17  1  0  0  0  0
  9 10  2  0  0  0  0
  9 15  1  0  0  0  0
 10 11  1  0  0  0  0
 10 60  1  0  0  0  0
 11 12  2  0  0  0  0
 11 61  1  0  0  0  0
 12 13  1  0  0  0  0
 12 14  1  0  0  0  0
 14 15  2  0  0  0  0
 14 62  1  0  0  0  0
 15 16  1  0  0  0  0
 17 18  2  0  0  0  0
 17 19  1  0  0  0  0
 19 20  1  0  0  0  0
 19 63  1  0  0  0  0
 20 21  2  0  0  0  0
 22 23  2  0  0  0  0
 22 27  1  0  0  0  0
 23 24  1  0  0  0  0
 23 64  1  0  0  0  0
 24 25  2  0  0  0  0
 24 65  1  0  0  0  0
 25 26  1  0  0  0  0
 25 66  1  0  0  0  0
 26 27  2  0  0  0  0
 26 67  1  0  0  0  0
 28 29  1  0  0  0  0
 28 68  1  0  0  0  0
 29 30  1  0  0  0  0
 29 69  1  0  0  0  0
 29 70  1  0  0  0  0
 30 31  1  0  0  0  0
 30 71  1  0  0  0  0
 30 72  1  0  0  0  0
 31 32  1  0  0  0  0
 32 33  1  0  0  0  0
 32 73  1  0  0  0  0
 32 74  1  0  0  0  0
 33 34  1  0  0  0  0
 33 75  1  0  0  0  0
 33 76  1  0  0  0  0
 34 35  1  0  0  0  0
 35 36  1  0  0  0  0
 35 77  1  0  0  0  0
 35 78  1  0  0  0  0
 36 37  1  0  0  0  0
 36 79  1  0  0  0  0
 36 80  1  0  0  0  0
 37 38  1  0  0  0  0
 37 81  1  0  0  0  0
 38 39  2  0  0  0  0
 38 43  1  0  0  0  0
 39 40  1  0  0  0  0
 39 82  1  0  0  0  0
 40 41  2  0  0  0  0
 40 83  1  0  0  0  0
 41 42  1  0  0  0  0
 41 84  1  0  0  0  0
 42 43  2  0  0  0  0
 42 55  1  0  0  0  0
 43 44  1  0  0  0  0
 44 45  2  0  0  0  0
 44 46  1  0  0  0  0
 46 47  1  0  0  0  0
 46 55  1  0  0  0  0
 47 48  1  0  0  0  0
 47 53  1  0  0  0  0
 47 85  1  0  0  0  0
 48 49  1  0  0  0  0
 48 86  1  0  0  0  0
 48 87  1  0  0  0  0
 49 50  1  0  0  0  0
 49 88  1  0  0  0  0
 49 89  1  0  0  0  0
 50 51  2  0  0  0  0
 50 52  1  0  0  0  0
 52 53  1  0  0  0  0
 52 90  1  0  0  0  0
 53 54  2  0  0  0  0
 55 56  2  0  0  0  0
M  END
$$$$
protac3895RUN2
  chem.cr 07102519423D
protac3895RUN2
 90 96  0  0  0  0  0  0  0  0999 V2000
    3.1540    0.5849    1.5821 O   0  0  0  0  0  0  0  0  0  0  0  0
    2.7724   -0.5569    1.3665 C   0  0  0  0  0  0  0  0  0  0  0  0
    3.2871   -1.7633    2.1143 C   0  0  0  0  0  0  0  0  0  0  0  0
    3.6694   -2.8932    1.2440 N   0  0  0  0  0  0  0  0  0  0  0  0
    4.6940   -2.7657    0.3016 C   0  0  0  0  0  0  0  0  0  0  0  0
    4.4880   -3.5873   -0.7545 C   0  0  0  0  0  0  0  0  0  0  0  0
    5.1916   -3.6315   -1.9312 C   0  0  0  0  0  0  0  0  0  0  0  0
    6.3678   -3.0097   -2.1853 C   0  0  0  0  0  0  0  0  0  0  0  0
    7.1095   -2.2525   -1.3020 C   0  0  0  0  0  0  0  0  0  0  0  0
    8.0055   -2.8914   -0.4242 C   0  0  0  0  0  0  0  0  0  0  0  0
    8.7711   -2.1354    0.4799 C   0  0  0  0  0  0  0  0  0  0  0  0
    8.6442   -0.7375    0.5072 C   0  0  0  0  0  0  0  0  0  0  0  0
    9.6104    0.2114    1.6298 Cl  0  0  0  0  0  0  0  0  0  0  0  0
    7.7508   -0.0938   -0.3639 C   0  0  0  0  0  0  0  0  0  0  0  0
    6.9861   -0.8470   -1.2702 C   0  0  0  0  0  0  0  0  0  0  0  0
    5.8485   -0.0148   -2.3294 Cl  0  0  0  0  0  0  0  0  0  0  0  0
    6.7813   -3.2090   -3.4371 C   0  0  0  0  0  0  0  0  0  0  0  0
    7.7582   -2.8329   -4.0707 O   0  0  0  0  0  0  0  0  0  0  0  0
    5.8610   -4.0223   -4.0683 N   0  0  0  0  0  0  0  0  0  0  0  0
    4.8654   -4.2214   -3.1131 C   0  0  0  0  0  0  0  0  0  0  0  0
    3.8708   -4.7897   -3.5413 O   0  0  0  0  0  0  0  0  0  0  0  0
    3.3450   -4.3362   -0.4132 C   0  0  0  0  0  0  0  0  0  0  0  0
    2.8103   -5.5342   -0.9349 C   0  0  0  0  0  0  0  0  0  0  0  0
    1.6648   -6.1030   -0.3396 C   0  0  0  0  0  0  0  0  0  0  0  0
    1.0937   -5.5352    0.8172 C   0  0  0  0  0  0  0  0  0  0  0  0
    1.6956   -4.4167    1.4196 C   0  0  0  0  0  0  0  0  0  0  0  0
    2.8160   -3.8591    0.7898 C   0  0  0  0  0  0  0  0  0  0  0  0
    1.7323   -0.7816    0.4558 N   0  0  0  0  0  0  0  0  0  0  0  0
    0.8812    0.2854   -0.0923 C   0  0  0  0  0  0  0  0  0  0  0  0
   -0.4993   -0.2689   -0.4723 C   0  0  0  0  0  0  0  0  0  0  0  0
   -1.2011    0.7323   -1.2172 O   0  0  0  0  0  0  0  0  0  0  0  0
   -2.5371    0.3551   -1.5656 C   0  0  0  0  0  0  0  0  0  0  0  0
   -3.1095    1.4021   -2.5314 C   0  0  0  0  0  0  0  0  0  0  0  0
   -4.3594    0.8693   -3.0028 O   0  0  0  0  0  0  0  0  0  0  0  0
   -5.0291    1.5860   -4.0556 C   0  0  0  0  0  0  0  0  0  0  0  0
   -5.5198    2.9627   -3.5515 C   0  0  0  0  0  0  0  0  0  0  0  0
   -6.0982    2.8561   -2.2031 N   0  0  0  0  0  0  0  0  0  0  0  0
   -5.8952    3.8714   -1.2823 C   0  0  0  0  0  0  0  0  0  0  0  0
   -6.0991    5.2306   -1.6129 C   0  0  0  0  0  0  0  0  0  0  0  0
   -5.7919    6.2589   -0.6884 C   0  0  0  0  0  0  0  0  0  0  0  0
   -5.2548    5.9443    0.5771 C   0  0  0  0  0  0  0  0  0  0  0  0
   -5.0678    4.5924    0.8931 C   0  0  0  0  0  0  0  0  0  0  0  0
   -5.4018    3.5813   -0.0064 C   0  0  0  0  0  0  0  0  0  0  0  0
   -5.0887    2.3745    0.5697 C   0  0  0  0  0  0  0  0  0  0  0  0
   -5.4982    1.2636    0.2502 O   0  0  0  0  0  0  0  0  0  0  0  0
   -4.5634    2.6174    1.8421 N   0  0  0  0  0  0  0  0  0  0  0  0
   -3.9506    1.5749    2.6942 C   0  0  0  0  0  0  0  0  0  0  0  0
   -4.8194    1.2470    3.9288 C   0  0  0  0  0  0  0  0  0  0  0  0
   -4.6156    2.2887    5.0525 C   0  0  0  0  0  0  0  0  0  0  0  0
   -3.1540    2.5555    5.3455 C   0  0  0  0  0  0  0  0  0  0  0  0
   -2.7459    2.8969    6.4454 O   0  0  0  0  0  0  0  0  0  0  0  0
   -2.1909    2.3114    4.3579 N   0  0  0  0  0  0  0  0  0  0  0  0
   -2.5056    1.8752    3.0620 C   0  0  0  0  0  0  0  0  0  0  0  0
   -1.5615    1.5446    2.3582 O   0  0  0  0  0  0  0  0  0  0  0  0
   -4.5426    4.0107    2.0221 C   0  0  0  0  0  0  0  0  0  0  0  0
   -3.9459    4.5670    2.9362 O   0  0  0  0  0  0  0  0  0  0  0  0
    4.1622   -1.4619    2.7028 H   0  0  0  0  0  0  0  0  0  0  0  0
    2.5196   -2.0928    2.8222 H   0  0  0  0  0  0  0  0  0  0  0  0
    5.4275   -1.9808    0.4572 H   0  0  0  0  0  0  0  0  0  0  0  0
    8.1047   -3.9733   -0.4507 H   0  0  0  0  0  0  0  0  0  0  0  0
    9.4655   -2.6309    1.1527 H   0  0  0  0  0  0  0  0  0  0  0  0
    7.6521    0.9874   -0.3384 H   0  0  0  0  0  0  0  0  0  0  0  0
    5.6679   -3.9774   -5.0570 H   0  0  0  0  0  0  0  0  0  0  0  0
    3.2817   -6.0738   -1.7438 H   0  0  0  0  0  0  0  0  0  0  0  0
    1.2400   -7.0099   -0.7611 H   0  0  0  0  0  0  0  0  0  0  0  0
    0.2223   -5.9966    1.2734 H   0  0  0  0  0  0  0  0  0  0  0  0
    1.3180   -4.0251    2.3586 H   0  0  0  0  0  0  0  0  0  0  0  0
    1.5779   -1.7361    0.1492 H   0  0  0  0  0  0  0  0  0  0  0  0
    1.3683    0.7165   -0.9774 H   0  0  0  0  0  0  0  0  0  0  0  0
    0.7567    1.0842    0.6539 H   0  0  0  0  0  0  0  0  0  0  0  0
   -1.0485   -0.5343    0.4411 H   0  0  0  0  0  0  0  0  0  0  0  0
   -0.3729   -1.1740   -1.0809 H   0  0  0  0  0  0  0  0  0  0  0  0
   -3.1689    0.2932   -0.6704 H   0  0  0  0  0  0  0  0  0  0  0  0
   -2.5388   -0.6227   -2.0647 H   0  0  0  0  0  0  0  0  0  0  0  0
   -2.4092    1.5536   -3.3616 H   0  0  0  0  0  0  0  0  0  0  0  0
   -3.2475    2.3535   -2.0019 H   0  0  0  0  0  0  0  0  0  0  0  0
   -4.3667    1.7176   -4.9220 H   0  0  0  0  0  0  0  0  0  0  0  0
   -5.8973    1.0011   -4.3873 H   0  0  0  0  0  0  0  0  0  0  0  0
   -4.6701    3.6586   -3.5375 H   0  0  0  0  0  0  0  0  0  0  0  0
   -6.2677    3.3586   -4.2504 H   0  0  0  0  0  0  0  0  0  0  0  0
   -6.0646    1.9238   -1.7975 H   0  0  0  0  0  0  0  0  0  0  0  0
   -6.4951    5.4903   -2.5900 H   0  0  0  0  0  0  0  0  0  0  0  0
   -5.9569    7.2991   -0.9599 H   0  0  0  0  0  0  0  0  0  0  0  0
   -4.9894    6.7228    1.2880 H   0  0  0  0  0  0  0  0  0  0  0  0
   -3.9115    0.6606    2.0858 H   0  0  0  0  0  0  0  0  0  0  0  0
   -4.5303    0.2575    4.3082 H   0  0  0  0  0  0  0  0  0  0  0  0
   -5.8771    1.1851    3.6391 H   0  0  0  0  0  0  0  0  0  0  0  0
   -5.1023    3.2346    4.7884 H   0  0  0  0  0  0  0  0  0  0  0  0
   -5.1062    1.9433    5.9708 H   0  0  0  0  0  0  0  0  0  0  0  0
   -1.2213    2.4808    4.5810 H   0  0  0  0  0  0  0  0  0  0  0  0
  1  2  2  0  0  0  0
  2  3  1  0  0  0  0
  2 28  1  0  0  0  0
  3  4  1  0  0  0  0
  3 57  1  0  0  0  0
  3 58  1  0  0  0  0
  4  5  1  0  0  0  0
  4 27  1  0  0  0  0
  5  6  2  0  0  0  0
  5 59  1  0  0  0  0
  6  7  1  0  0  0  0
  6 22  1  0  0  0  0
  7  8  2  0  0  0  0
  7 20  1  0  0  0  0
  8  9  1  0  0  0  0
  8 17  1  0  0  0  0
  9 10  2  0  0  0  0
  9 15  1  0  0  0  0
 10 11  1  0  0  0  0
 10 60  1  0  0  0  0
 11 12  2  0  0  0  0
 11 61  1  0  0  0  0
 12 13  1  0  0  0  0
 12 14  1  0  0  0  0
 14 15  2  0  0  0  0
 14 62  1  0  0  0  0
 15 16  1  0  0  0  0
 17 18  2  0  0  0  0
 17 19  1  0  0  0  0
 19 20  1  0  0  0  0
 19 63  1  0  0  0  0
 20 21  2  0  0  0  0
 22 23  2  0  0  0  0
 22 27  1  0  0  0  0
 23 24  1  0  0  0  0
 23 64  1  0  0  0  0
 24 25  2  0  0  0  0
 24 65  1  0  0  0  0
 25 26  1  0  0  0  0
 25 66  1  0  0  0  0
 26 27  2  0  0  0  0
 26 67  1  0  0  0  0
 28 29  1  0  0  0  0
 28 68  1  0  0  0  0
 29 30  1  0  0  0  0
 29 69  1  0  0  0  0
 29 70  1  0  0  0  0
 30 31  1  0  0  0  0
 30 71  1  0  0  0  0
 30 72  1  0  0  0  0
 31 32  1  0  0  0  0
 32 33  1  0  0  0  0
 32 73  1  0  0  0  0
 32 74  1  0  0  0  0
 33 34  1  0  0  0  0
 33 75  1  0  0  0  0
 33 76  1  0  0  0  0
 34 35  1  0  0  0  0
 35 36  1  0  0  0  0
 35 77  1  0  0  0  0
 35 78  1  0  0  0  0
 36 37  1  0  0  0  0
 36 79  1  0  0  0  0
 36 80  1  0  0  0  0
 37 38  1  0  0  0  0
 37 81  1  0  0  0  0
 38 39  2  0  0  0  0
 38 43  1  0  0  0  0
 39 40  1  0  0  0  0
 39 82  1  0  0  0  0
 40 41  2  0  0  0  0
 40 83  1  0  0  0  0
 41 42  1  0  0  0  0
 41 84  1  0  0  0  0
 42 43  2  0  0  0  0
 42 55  1  0  0  0  0
 43 44  1  0  0  0  0
 44 45  2  0  0  0  0
 44 46  1  0  0  0  0
 46 47  1  0  0  0  0
 46 55  1  0  0  0  0
 47 48  1  0  0  0  0
 47 53  1  0  0  0  0
 47 85  1  0  0  0  0
 48 49  1  0  0  0  0
 48 86  1  0  0  0  0
 48 87  1  0  0  0  0
 49 50  1  0  0  0  0
 49 88  1  0  0  0  0
 49 89  1  0  0  0  0
 50 51  2  0  0  0  0
 50 52  1  0  0  0  0
 52 53  1  0  0  0  0
 52 90  1  0  0  0  0
 53 54  2  0  0  0  0
 55 56  2  0  0  0  0
M  END
$$$$
protac3895RUN2
  chem.cr 07102519423D
protac3895RUN2
 90 96  0  0  0  0  0  0  0  0999 V2000
    5.7010    0.6730    1.9748 O   0  0  0  0  0  0  0  0  0  0  0  0
    4.5146    0.8924    2.1616 C   0  0  0  0  0  0  0  0  0  0  0  0
    3.9630    1.4533    3.4612 C   0  0  0  0  0  0  0  0  0  0  0  0
    3.2634    0.4684    4.3139 N   0  0  0  0  0  0  0  0  0  0  0  0
    3.5067   -0.9019    4.1666 C   0  0  0  0  0  0  0  0  0  0  0  0
    2.4438   -1.6350    4.5629 C   0  0  0  0  0  0  0  0  0  0  0  0
    2.3724   -3.0009    4.6671 C   0  0  0  0  0  0  0  0  0  0  0  0
    3.2545   -3.8930    4.1480 C   0  0  0  0  0  0  0  0  0  0  0  0
    4.3381   -3.6040    3.3394 C   0  0  0  0  0  0  0  0  0  0  0  0
    5.6468   -3.7359    3.8445 C   0  0  0  0  0  0  0  0  0  0  0  0
    6.7537   -3.4153    3.0408 C   0  0  0  0  0  0  0  0  0  0  0  0
    6.5587   -2.9674    1.7239 C   0  0  0  0  0  0  0  0  0  0  0  0
    7.9412   -2.5505    0.7202 Cl  0  0  0  0  0  0  0  0  0  0  0  0
    5.2591   -2.8477    1.2059 C   0  0  0  0  0  0  0  0  0  0  0  0
    4.1511   -3.1676    2.0069 C   0  0  0  0  0  0  0  0  0  0  0  0
    2.5317   -3.0121    1.3185 Cl  0  0  0  0  0  0  0  0  0  0  0  0
    2.9410   -5.1476    4.4695 C   0  0  0  0  0  0  0  0  0  0  0  0
    3.4552   -6.2323    4.2306 O   0  0  0  0  0  0  0  0  0  0  0  0
    1.7768   -5.1199    5.2157 N   0  0  0  0  0  0  0  0  0  0  0  0
    1.4781   -3.7643    5.3445 C   0  0  0  0  0  0  0  0  0  0  0  0
    0.5557   -3.5194    6.1114 O   0  0  0  0  0  0  0  0  0  0  0  0
    1.4477   -0.6905    4.8868 C   0  0  0  0  0  0  0  0  0  0  0  0
    0.0520   -0.8181    5.0706 C   0  0  0  0  0  0  0  0  0  0  0  0
   -0.7323    0.3385    5.2729 C   0  0  0  0  0  0  0  0  0  0  0  0
   -0.1484    1.6220    5.2434 C   0  0  0  0  0  0  0  0  0  0  0  0
    1.2215    1.7658    4.9583 C   0  0  0  0  0  0  0  0  0  0  0  0
    1.9764    0.6001    4.7653 C   0  0  0  0  0  0  0  0  0  0  0  0
    3.6567    0.6410    1.0806 N   0  0  0  0  0  0  0  0  0  0  0  0
    2.1886    0.6836    1.1610 C   0  0  0  0  0  0  0  0  0  0  0  0
    1.6366    2.1076    0.9216 C   0  0  0  0  0  0  0  0  0  0  0  0
    0.4802    2.3341    1.7531 O   0  0  0  0  0  0  0  0  0  0  0  0
   -0.6387    1.4209    1.6643 C   0  0  0  0  0  0  0  0  0  0  0  0
   -1.2452    1.4384    0.2449 C   0  0  0  0  0  0  0  0  0  0  0  0
   -0.4390    0.6171   -0.6127 O   0  0  0  0  0  0  0  0  0  0  0  0
   -0.9269    0.5204   -1.9463 C   0  0  0  0  0  0  0  0  0  0  0  0
    0.1504   -0.1682   -2.8093 C   0  0  0  0  0  0  0  0  0  0  0  0
   -0.3652   -0.3780   -4.1725 N   0  0  0  0  0  0  0  0  0  0  0  0
   -0.8012    0.7183   -4.9025 C   0  0  0  0  0  0  0  0  0  0  0  0
    0.0958    1.6696   -5.4309 C   0  0  0  0  0  0  0  0  0  0  0  0
   -0.3839    2.8272   -6.0943 C   0  0  0  0  0  0  0  0  0  0  0  0
   -1.7715    3.0674   -6.2065 C   0  0  0  0  0  0  0  0  0  0  0  0
   -2.6472    2.1216   -5.6609 C   0  0  0  0  0  0  0  0  0  0  0  0
   -2.1714    0.9631   -5.0524 C   0  0  0  0  0  0  0  0  0  0  0  0
   -3.2573    0.2612   -4.5939 C   0  0  0  0  0  0  0  0  0  0  0  0
   -3.2770   -0.7897   -3.9585 O   0  0  0  0  0  0  0  0  0  0  0  0
   -4.4209    0.9949   -4.8415 N   0  0  0  0  0  0  0  0  0  0  0  0
   -5.5749    0.9425   -3.9120 C   0  0  0  0  0  0  0  0  0  0  0  0
   -6.5762   -0.1515   -4.3333 C   0  0  0  0  0  0  0  0  0  0  0  0
   -7.4024    0.3330   -5.5434 C   0  0  0  0  0  0  0  0  0  0  0  0
   -8.0726    1.6597   -5.2624 C   0  0  0  0  0  0  0  0  0  0  0  0
   -9.1654    1.9663   -5.7149 O   0  0  0  0  0  0  0  0  0  0  0  0
   -7.4676    2.5617   -4.3779 N   0  0  0  0  0  0  0  0  0  0  0  0
   -6.2647    2.2865   -3.7082 C   0  0  0  0  0  0  0  0  0  0  0  0
   -5.8837    3.1205   -2.8976 O   0  0  0  0  0  0  0  0  0  0  0  0
   -4.0193    2.1409   -5.5491 C   0  0  0  0  0  0  0  0  0  0  0  0
   -4.8047    2.7704   -6.2488 O   0  0  0  0  0  0  0  0  0  0  0  0
    4.8014    1.8544    4.0393 H   0  0  0  0  0  0  0  0  0  0  0  0
    3.2899    2.2868    3.2356 H   0  0  0  0  0  0  0  0  0  0  0  0
    4.5015   -1.2082    3.8507 H   0  0  0  0  0  0  0  0  0  0  0  0
    5.7993   -4.0789    4.8645 H   0  0  0  0  0  0  0  0  0  0  0  0
    7.7610   -3.5121    3.4338 H   0  0  0  0  0  0  0  0  0  0  0  0
    5.1116   -2.5039    0.1864 H   0  0  0  0  0  0  0  0  0  0  0  0
    1.5397   -5.8094    5.9100 H   0  0  0  0  0  0  0  0  0  0  0  0
   -0.4553   -1.7697    4.9979 H   0  0  0  0  0  0  0  0  0  0  0  0
   -1.8046    0.2380    5.4290 H   0  0  0  0  0  0  0  0  0  0  0  0
   -0.7694    2.5024    5.3900 H   0  0  0  0  0  0  0  0  0  0  0  0
    1.6650    2.7511    4.8577 H   0  0  0  0  0  0  0  0  0  0  0  0
    4.0943    0.3568    0.2130 H   0  0  0  0  0  0  0  0  0  0  0  0
    1.8621    0.3134    2.1396 H   0  0  0  0  0  0  0  0  0  0  0  0
    1.7674   -0.0030    0.4148 H   0  0  0  0  0  0  0  0  0  0  0  0
    1.4059    2.2551   -0.1419 H   0  0  0  0  0  0  0  0  0  0  0  0
    2.4063    2.8425    1.1842 H   0  0  0  0  0  0  0  0  0  0  0  0
   -1.4140    1.7417    2.3717 H   0  0  0  0  0  0  0  0  0  0  0  0
   -0.3588    0.3964    1.9452 H   0  0  0  0  0  0  0  0  0  0  0  0
   -1.2861    2.4732   -0.1220 H   0  0  0  0  0  0  0  0  0  0  0  0
   -2.2713    1.0500    0.2876 H   0  0  0  0  0  0  0  0  0  0  0  0
   -1.8563   -0.0620   -1.9632 H   0  0  0  0  0  0  0  0  0  0  0  0
   -1.1384    1.5186   -2.3517 H   0  0  0  0  0  0  0  0  0  0  0  0
    1.0497    0.4598   -2.8326 H   0  0  0  0  0  0  0  0  0  0  0  0
    0.4147   -1.1350   -2.3577 H   0  0  0  0  0  0  0  0  0  0  0  0
   -1.0058   -1.1606   -4.2456 H   0  0  0  0  0  0  0  0  0  0  0  0
    1.1641    1.5144   -5.3271 H   0  0  0  0  0  0  0  0  0  0  0  0
    0.3211    3.5486   -6.5015 H   0  0  0  0  0  0  0  0  0  0  0  0
   -2.1533    3.9707   -6.6793 H   0  0  0  0  0  0  0  0  0  0  0  0
   -5.1745    0.6549   -2.9294 H   0  0  0  0  0  0  0  0  0  0  0  0
   -7.2518   -0.3587   -3.4916 H   0  0  0  0  0  0  0  0  0  0  0  0
   -6.0489   -1.0868   -4.5624 H   0  0  0  0  0  0  0  0  0  0  0  0
   -6.7612    0.4396   -6.4285 H   0  0  0  0  0  0  0  0  0  0  0  0
   -8.1635   -0.4145   -5.7960 H   0  0  0  0  0  0  0  0  0  0  0  0
   -7.8987    3.4617   -4.2405 H   0  0  0  0  0  0  0  0  0  0  0  0
  1  2  2  0  0  0  0
  2  3  1  0  0  0  0
  2 28  1  0  0  0  0
  3  4  1  0  0  0  0
  3 57  1  0  0  0  0
  3 58  1  0  0  0  0
  4  5  1  0  0  0  0
  4 27  1  0  0  0  0
  5  6  2  0  0  0  0
  5 59  1  0  0  0  0
  6  7  1  0  0  0  0
  6 22  1  0  0  0  0
  7  8  2  0  0  0  0
  7 20  1  0  0  0  0
  8  9  1  0  0  0  0
  8 17  1  0  0  0  0
  9 10  2  0  0  0  0
  9 15  1  0  0  0  0
 10 11  1  0  0  0  0
 10 60  1  0  0  0  0
 11 12  2  0  0  0  0
 11 61  1  0  0  0  0
 12 13  1  0  0  0  0
 12 14  1  0  0  0  0
 14 15  2  0  0  0  0
 14 62  1  0  0  0  0
 15 16  1  0  0  0  0
 17 18  2  0  0  0  0
 17 19  1  0  0  0  0
 19 20  1  0  0  0  0
 19 63  1  0  0  0  0
 20 21  2  0  0  0  0
 22 23  2  0  0  0  0
 22 27  1  0  0  0  0
 23 24  1  0  0  0  0
 23 64  1  0  0  0  0
 24 25  2  0  0  0  0
 24 65  1  0  0  0  0
 25 26  1  0  0  0  0
 25 66  1  0  0  0  0
 26 27  2  0  0  0  0
 26 67  1  0  0  0  0
 28 29  1  0  0  0  0
 28 68  1  0  0  0  0
 29 30  1  0  0  0  0
 29 69  1  0  0  0  0
 29 70  1  0  0  0  0
 30 31  1  0  0  0  0
 30 71  1  0  0  0  0
 30 72  1  0  0  0  0
 31 32  1  0  0  0  0
 32 33  1  0  0  0  0
 32 73  1  0  0  0  0
 32 74  1  0  0  0  0
 33 34  1  0  0  0  0
 33 75  1  0  0  0  0
 33 76  1  0  0  0  0
 34 35  1  0  0  0  0
 35 36  1  0  0  0  0
 35 77  1  0  0  0  0
 35 78  1  0  0  0  0
 36 37  1  0  0  0  0
 36 79  1  0  0  0  0
 36 80  1  0  0  0  0
 37 38  1  0  0  0  0
 37 81  1  0  0  0  0
 38 39  2  0  0  0  0
 38 43  1  0  0  0  0
 39 40  1  0  0  0  0
 39 82  1  0  0  0  0
 40 41  2  0  0  0  0
 40 83  1  0  0  0  0
 41 42  1  0  0  0  0
 41 84  1  0  0  0  0
 42 43  2  0  0  0  0
 42 55  1  0  0  0  0
 43 44  1  0  0  0  0
 44 45  2  0  0  0  0
 44 46  1  0  0  0  0
 46 47  1  0  0  0  0
 46 55  1  0  0  0  0
 47 48  1  0  0  0  0
 47 53  1  0  0  0  0
 47 85  1  0  0  0  0
 48 49  1  0  0  0  0
 48 86  1  0  0  0  0
 48 87  1  0  0  0  0
 49 50  1  0  0  0  0
 49 88  1  0  0  0  0
 49 89  1  0  0  0  0
 50 51  2  0  0  0  0
 50 52  1  0  0  0  0
 52 53  1  0  0  0  0
 52 90  1  0  0  0  0
 53 54  2  0  0  0  0
 55 56  2  0  0  0  0
M  END
$$$$
protac3895RUN2
  chem.cr 07102519423D
protac3895RUN2
 90 96  0  0  0  0  0  0  0  0999 V2000
    4.9943    1.7382    2.1568 O   0  0  0  0  0  0  0  0  0  0  0  0
    4.0266    1.7031    2.9005 C   0  0  0  0  0  0  0  0  0  0  0  0
    4.1070    1.1989    4.3315 C   0  0  0  0  0  0  0  0  0  0  0  0
    3.3038   -0.0157    4.6126 N   0  0  0  0  0  0  0  0  0  0  0  0
    3.2625   -1.0768    3.7011 C   0  0  0  0  0  0  0  0  0  0  0  0
    2.1205   -1.7939    3.8302 C   0  0  0  0  0  0  0  0  0  0  0  0
    1.8160   -2.9971    3.2408 C   0  0  0  0  0  0  0  0  0  0  0  0
    2.5652   -3.6564    2.3184 C   0  0  0  0  0  0  0  0  0  0  0  0
    3.7871   -3.2688    1.8027 C   0  0  0  0  0  0  0  0  0  0  0  0
    4.9695   -3.6126    2.4865 C   0  0  0  0  0  0  0  0  0  0  0  0
    6.2217   -3.2082    1.9930 C   0  0  0  0  0  0  0  0  0  0  0  0
    6.2993   -2.4741    0.8004 C   0  0  0  0  0  0  0  0  0  0  0  0
    7.8661   -1.9849    0.1661 Cl  0  0  0  0  0  0  0  0  0  0  0  0
    5.1292   -2.1495    0.0977 C   0  0  0  0  0  0  0  0  0  0  0  0
    3.8778   -2.5509    0.5934 C   0  0  0  0  0  0  0  0  0  0  0  0
    2.4372   -2.1623   -0.3297 Cl  0  0  0  0  0  0  0  0  0  0  0  0
    2.0230   -4.8231    1.9730 C   0  0  0  0  0  0  0  0  0  0  0  0
    2.3816   -5.7263    1.2274 O   0  0  0  0  0  0  0  0  0  0  0  0
    0.8379   -4.9690    2.6626 N   0  0  0  0  0  0  0  0  0  0  0  0
    0.7747   -3.8423    3.4790 C   0  0  0  0  0  0  0  0  0  0  0  0
   -0.1327   -3.8775    4.2938 O   0  0  0  0  0  0  0  0  0  0  0  0
    1.3463   -1.0668    4.7594 C   0  0  0  0  0  0  0  0  0  0  0  0
   -0.0315   -1.0807    5.0785 C   0  0  0  0  0  0  0  0  0  0  0  0
   -0.5365   -0.1806    6.0409 C   0  0  0  0  0  0  0  0  0  0  0  0
    0.3038    0.7713    6.6516 C   0  0  0  0  0  0  0  0  0  0  0  0
    1.6474    0.8703    6.2587 C   0  0  0  0  0  0  0  0  0  0  0  0
    2.1181   -0.0281    5.2934 C   0  0  0  0  0  0  0  0  0  0  0  0
    2.9274    2.4854    2.5255 N   0  0  0  0  0  0  0  0  0  0  0  0
    1.5557    2.1734    2.9484 C   0  0  0  0  0  0  0  0  0  0  0  0
    0.5135    3.1580    2.3837 C   0  0  0  0  0  0  0  0  0  0  0  0
   -0.7594    2.9086    3.0136 O   0  0  0  0  0  0  0  0  0  0  0  0
   -1.3924    1.6268    2.8068 C   0  0  0  0  0  0  0  0  0  0  0  0
   -1.8451    1.4801    1.3409 C   0  0  0  0  0  0  0  0  0  0  0  0
   -0.7456    0.9968    0.5618 O   0  0  0  0  0  0  0  0  0  0  0  0
   -1.0283    0.8530   -0.8314 C   0  0  0  0  0  0  0  0  0  0  0  0
   -0.2748   -0.3968   -1.3010 C   0  0  0  0  0  0  0  0  0  0  0  0
   -0.8453   -0.8865   -2.5619 N   0  0  0  0  0  0  0  0  0  0  0  0
   -0.7485   -0.1803   -3.7538 C   0  0  0  0  0  0  0  0  0  0  0  0
    0.4294    0.4848   -4.1610 C   0  0  0  0  0  0  0  0  0  0  0  0
    0.4708    1.2036   -5.3825 C   0  0  0  0  0  0  0  0  0  0  0  0
   -0.6748    1.2882   -6.2031 C   0  0  0  0  0  0  0  0  0  0  0  0
   -1.8382    0.6329   -5.7806 C   0  0  0  0  0  0  0  0  0  0  0  0
   -1.8592   -0.0959   -4.5975 C   0  0  0  0  0  0  0  0  0  0  0  0
   -3.1222   -0.6065   -4.4534 C   0  0  0  0  0  0  0  0  0  0  0  0
   -3.5366   -1.3865   -3.6031 O   0  0  0  0  0  0  0  0  0  0  0  0
   -3.9328   -0.1390   -5.4956 N   0  0  0  0  0  0  0  0  0  0  0  0
   -5.3279    0.2556   -5.1891 C   0  0  0  0  0  0  0  0  0  0  0  0
   -6.2247    0.5524   -6.4175 C   0  0  0  0  0  0  0  0  0  0  0  0
   -6.0607    1.9981   -6.9587 C   0  0  0  0  0  0  0  0  0  0  0  0
   -5.9354    3.0561   -5.8845 C   0  0  0  0  0  0  0  0  0  0  0  0
   -6.0663    4.2481   -6.1092 O   0  0  0  0  0  0  0  0  0  0  0  0
   -5.4548    2.7120   -4.6179 N   0  0  0  0  0  0  0  0  0  0  0  0
   -5.3759    1.3898   -4.1745 C   0  0  0  0  0  0  0  0  0  0  0  0
   -5.3208    1.2277   -2.9626 O   0  0  0  0  0  0  0  0  0  0  0  0
   -3.0872    0.5801   -6.3601 C   0  0  0  0  0  0  0  0  0  0  0  0
   -3.2861    0.5427   -7.5695 O   0  0  0  0  0  0  0  0  0  0  0  0
    5.1582    0.9784    4.5574 H   0  0  0  0  0  0  0  0  0  0  0  0
    3.8032    2.0069    5.0033 H   0  0  0  0  0  0  0  0  0  0  0  0
    4.1433   -1.2376    3.0871 H   0  0  0  0  0  0  0  0  0  0  0  0
    4.9095   -4.1832    3.4077 H   0  0  0  0  0  0  0  0  0  0  0  0
    7.1291   -3.4641    2.5315 H   0  0  0  0  0  0  0  0  0  0  0  0
    5.1953   -1.5969   -0.8358 H   0  0  0  0  0  0  0  0  0  0  0  0
    0.4488   -5.8624    2.9235 H   0  0  0  0  0  0  0  0  0  0  0  0
   -0.7442   -1.7120    4.5681 H   0  0  0  0  0  0  0  0  0  0  0  0
   -1.5924   -0.2041    6.2963 H   0  0  0  0  0  0  0  0  0  0  0  0
   -0.1017    1.4617    7.3868 H   0  0  0  0  0  0  0  0  0  0  0  0
    2.2895    1.6418    6.6737 H   0  0  0  0  0  0  0  0  0  0  0  0
    3.0563    3.0804    1.7153 H   0  0  0  0  0  0  0  0  0  0  0  0
    1.4939    2.2066    4.0410 H   0  0  0  0  0  0  0  0  0  0  0  0
    1.3197    1.1494    2.6269 H   0  0  0  0  0  0  0  0  0  0  0  0
    0.4487    3.0702    1.2923 H   0  0  0  0  0  0  0  0  0  0  0  0
    0.8302    4.1830    2.6161 H   0  0  0  0  0  0  0  0  0  0  0  0
   -2.2821    1.5631    3.4430 H   0  0  0  0  0  0  0  0  0  0  0  0
   -0.7417    0.7912    3.0897 H   0  0  0  0  0  0  0  0  0  0  0  0
   -2.2138    2.4427    0.9623 H   0  0  0  0  0  0  0  0  0  0  0  0
   -2.6664    0.7529    1.3018 H   0  0  0  0  0  0  0  0  0  0  0  0
   -2.1050    0.7125   -1.0016 H   0  0  0  0  0  0  0  0  0  0  0  0
   -0.6945    1.7337   -1.3980 H   0  0  0  0  0  0  0  0  0  0  0  0
    0.7900   -0.1626   -1.4067 H   0  0  0  0  0  0  0  0  0  0  0  0
   -0.3757   -1.1749   -0.5315 H   0  0  0  0  0  0  0  0  0  0  0  0
   -1.6859   -1.4520   -2.4852 H   0  0  0  0  0  0  0  0  0  0  0  0
    1.3179    0.4334   -3.5398 H   0  0  0  0  0  0  0  0  0  0  0  0
    1.3916    1.6960   -5.6812 H   0  0  0  0  0  0  0  0  0  0  0  0
   -0.6569    1.8542   -7.1318 H   0  0  0  0  0  0  0  0  0  0  0  0
   -5.7702   -0.6124   -4.6827 H   0  0  0  0  0  0  0  0  0  0  0  0
   -7.2714    0.4178   -6.1103 H   0  0  0  0  0  0  0  0  0  0  0  0
   -6.0334   -0.1835   -7.2126 H   0  0  0  0  0  0  0  0  0  0  0  0
   -5.1819    2.0783   -7.6063 H   0  0  0  0  0  0  0  0  0  0  0  0
   -6.9151    2.2478   -7.6009 H   0  0  0  0  0  0  0  0  0  0  0  0
   -5.3642    3.4452   -3.9308 H   0  0  0  0  0  0  0  0  0  0  0  0
  1  2  2  0  0  0  0
  2  3  1  0  0  0  0
  2 28  1  0  0  0  0
  3  4  1  0  0  0  0
  3 57  1  0  0  0  0
  3 58  1  0  0  0  0
  4  5  1  0  0  0  0
  4 27  1  0  0  0  0
  5  6  2  0  0  0  0
  5 59  1  0  0  0  0
  6  7  1  0  0  0  0
  6 22  1  0  0  0  0
  7  8  2  0  0  0  0
  7 20  1  0  0  0  0
  8  9  1  0  0  0  0
  8 17  1  0  0  0  0
  9 10  2  0  0  0  0
  9 15  1  0  0  0  0
 10 11  1  0  0  0  0
 10 60  1  0  0  0  0
 11 12  2  0  0  0  0
 11 61  1  0  0  0  0
 12 13  1  0  0  0  0
 12 14  1  0  0  0  0
 14 15  2  0  0  0  0
 14 62  1  0  0  0  0
 15 16  1  0  0  0  0
 17 18  2  0  0  0  0
 17 19  1  0  0  0  0
 19 20  1  0  0  0  0
 19 63  1  0  0  0  0
 20 21  2  0  0  0  0
 22 23  2  0  0  0  0
 22 27  1  0  0  0  0
 23 24  1  0  0  0  0
 23 64  1  0  0  0  0
 24 25  2  0  0  0  0
 24 65  1  0  0  0  0
 25 26  1  0  0  0  0
 25 66  1  0  0  0  0
 26 27  2  0  0  0  0
 26 67  1  0  0  0  0
 28 29  1  0  0  0  0
 28 68  1  0  0  0  0
 29 30  1  0  0  0  0
 29 69  1  0  0  0  0
 29 70  1  0  0  0  0
 30 31  1  0  0  0  0
 30 71  1  0  0  0  0
 30 72  1  0  0  0  0
 31 32  1  0  0  0  0
 32 33  1  0  0  0  0
 32 73  1  0  0  0  0
 32 74  1  0  0  0  0
 33 34  1  0  0  0  0
 33 75  1  0  0  0  0
 33 76  1  0  0  0  0
 34 35  1  0  0  0  0
 35 36  1  0  0  0  0
 35 77  1  0  0  0  0
 35 78  1  0  0  0  0
 36 37  1  0  0  0  0
 36 79  1  0  0  0  0
 36 80  1  0  0  0  0
 37 38  1  0  0  0  0
 37 81  1  0  0  0  0
 38 39  2  0  0  0  0
 38 43  1  0  0  0  0
 39 40  1  0  0  0  0
 39 82  1  0  0  0  0
 40 41  2  0  0  0  0
 40 83  1  0  0  0  0
 41 42  1  0  0  0  0
 41 84  1  0  0  0  0
 42 43  2  0  0  0  0
 42 55  1  0  0  0  0
 43 44  1  0  0  0  0
 44 45  2  0  0  0  0
 44 46  1  0  0  0  0
 46 47  1  0  0  0  0
 46 55  1  0  0  0  0
 47 48  1  0  0  0  0
 47 53  1  0  0  0  0
 47 85  1  0  0  0  0
 48 49  1  0  0  0  0
 48 86  1  0  0  0  0
 48 87  1  0  0  0  0
 49 50  1  0  0  0  0
 49 88  1  0  0  0  0
 49 89  1  0  0  0  0
 50 51  2  0  0  0  0
 50 52  1  0  0  0  0
 52 53  1  0  0  0  0
 52 90  1  0  0  0  0
 53 54  2  0  0  0  0
 55 56  2  0  0  0  0
M  END
$$$$
protac3895RUN2
  chem.cr 07102519423D
protac3895RUN2
 90 96  0  0  0  0  0  0  0  0999 V2000
    2.7916   -3.0643    2.0322 O   0  0  0  0  0  0  0  0  0  0  0  0
    1.9144   -2.4862    2.6570 C   0  0  0  0  0  0  0  0  0  0  0  0
    1.1220   -3.1438    3.7739 C   0  0  0  0  0  0  0  0  0  0  0  0
    0.0266   -2.3288    4.3531 N   0  0  0  0  0  0  0  0  0  0  0  0
    0.3172   -1.0831    4.9178 C   0  0  0  0  0  0  0  0  0  0  0  0
   -0.7123   -0.2176    4.7729 C   0  0  0  0  0  0  0  0  0  0  0  0
   -0.7890    1.0627    5.2462 C   0  0  0  0  0  0  0  0  0  0  0  0
    0.2614    1.8172    5.6410 C   0  0  0  0  0  0  0  0  0  0  0  0
    1.5912    1.4772    5.4970 C   0  0  0  0  0  0  0  0  0  0  0  0
    2.1508    1.4861    4.2028 C   0  0  0  0  0  0  0  0  0  0  0  0
    3.4731    1.0621    3.9968 C   0  0  0  0  0  0  0  0  0  0  0  0
    4.2473    0.6354    5.0873 C   0  0  0  0  0  0  0  0  0  0  0  0
    5.8935    0.0799    4.8266 Cl  0  0  0  0  0  0  0  0  0  0  0  0
    3.7072    0.6465    6.3853 C   0  0  0  0  0  0  0  0  0  0  0  0
    2.3807    1.0676    6.5932 C   0  0  0  0  0  0  0  0  0  0  0  0
    1.7051    1.0128    8.2217 Cl  0  0  0  0  0  0  0  0  0  0  0  0
   -0.1211    3.0145    6.0860 C   0  0  0  0  0  0  0  0  0  0  0  0
    0.4848    3.9928    6.5002 O   0  0  0  0  0  0  0  0  0  0  0  0
   -1.4994    3.0874    5.9717 N   0  0  0  0  0  0  0  0  0  0  0  0
   -1.8785    1.8424    5.4668 C   0  0  0  0  0  0  0  0  0  0  0  0
   -3.0861    1.6530    5.4163 O   0  0  0  0  0  0  0  0  0  0  0  0
   -1.6885   -0.9299    4.0525 C   0  0  0  0  0  0  0  0  0  0  0  0
   -2.8627   -0.5045    3.3900 C   0  0  0  0  0  0  0  0  0  0  0  0
   -3.5944   -1.4313    2.6167 C   0  0  0  0  0  0  0  0  0  0  0  0
   -3.1429   -2.7569    2.4533 C   0  0  0  0  0  0  0  0  0  0  0  0
   -1.9306   -3.1632    3.0375 C   0  0  0  0  0  0  0  0  0  0  0  0
   -1.2272   -2.2295    3.8092 C   0  0  0  0  0  0  0  0  0  0  0  0
    1.4977   -1.2202    2.2186 N   0  0  0  0  0  0  0  0  0  0  0  0
    1.2571   -0.9495    0.8012 C   0  0  0  0  0  0  0  0  0  0  0  0
   -0.0645   -1.6112    0.3647 C   0  0  0  0  0  0  0  0  0  0  0  0
   -0.3212   -1.2823   -1.0018 O   0  0  0  0  0  0  0  0  0  0  0  0
    0.5356   -1.8861   -1.9826 C   0  0  0  0  0  0  0  0  0  0  0  0
    1.0824   -0.7549   -2.8659 C   0  0  0  0  0  0  0  0  0  0  0  0
    2.0830   -0.0353   -2.1260 O   0  0  0  0  0  0  0  0  0  0  0  0
    2.3632    1.3120   -2.5541 C   0  0  0  0  0  0  0  0  0  0  0  0
    3.0097    1.3214   -3.9624 C   0  0  0  0  0  0  0  0  0  0  0  0
    1.9979    1.5738   -5.0022 N   0  0  0  0  0  0  0  0  0  0  0  0
    1.4057    0.5472   -5.7214 C   0  0  0  0  0  0  0  0  0  0  0  0
    2.1491   -0.4986   -6.3091 C   0  0  0  0  0  0  0  0  0  0  0  0
    1.4911   -1.5930   -6.9247 C   0  0  0  0  0  0  0  0  0  0  0  0
    0.0810   -1.6619   -6.9530 C   0  0  0  0  0  0  0  0  0  0  0  0
   -0.6365   -0.6078   -6.3717 C   0  0  0  0  0  0  0  0  0  0  0  0
    0.0114    0.4703   -5.7870 C   0  0  0  0  0  0  0  0  0  0  0  0
   -0.9297    1.3018   -5.2355 C   0  0  0  0  0  0  0  0  0  0  0  0
   -0.7970    2.5114   -5.1164 O   0  0  0  0  0  0  0  0  0  0  0  0
   -2.1991    0.7292   -5.4233 N   0  0  0  0  0  0  0  0  0  0  0  0
   -3.2704    0.7577   -4.3968 C   0  0  0  0  0  0  0  0  0  0  0  0
   -3.8007    2.1671   -4.0386 C   0  0  0  0  0  0  0  0  0  0  0  0
   -2.9106    2.9340   -3.0209 C   0  0  0  0  0  0  0  0  0  0  0  0
   -2.0176    2.0647   -2.1520 C   0  0  0  0  0  0  0  0  0  0  0  0
   -1.1756    2.5207   -1.3935 O   0  0  0  0  0  0  0  0  0  0  0  0
   -2.2108    0.6800   -2.1214 N   0  0  0  0  0  0  0  0  0  0  0  0
   -2.8666   -0.0054   -3.1469 C   0  0  0  0  0  0  0  0  0  0  0  0
   -3.0207   -1.2095   -3.0035 O   0  0  0  0  0  0  0  0  0  0  0  0
   -1.9885   -0.4365   -6.1868 C   0  0  0  0  0  0  0  0  0  0  0  0
   -2.8773   -1.2568   -6.3872 O   0  0  0  0  0  0  0  0  0  0  0  0
    0.7029   -4.0792    3.3850 H   0  0  0  0  0  0  0  0  0  0  0  0
    1.8182   -3.4227    4.5727 H   0  0  0  0  0  0  0  0  0  0  0  0
    1.2690   -0.9714    5.4262 H   0  0  0  0  0  0  0  0  0  0  0  0
    1.5510    1.8119    3.3569 H   0  0  0  0  0  0  0  0  0  0  0  0
    3.8941    1.0537    2.9944 H   0  0  0  0  0  0  0  0  0  0  0  0
    4.3127    0.3183    7.2259 H   0  0  0  0  0  0  0  0  0  0  0  0
   -2.0898    3.6646    6.5507 H   0  0  0  0  0  0  0  0  0  0  0  0
   -3.1986    0.5221    3.4068 H   0  0  0  0  0  0  0  0  0  0  0  0
   -4.5054   -1.1124    2.1180 H   0  0  0  0  0  0  0  0  0  0  0  0
   -3.7121   -3.4519    1.8416 H   0  0  0  0  0  0  0  0  0  0  0  0
   -1.5457   -4.1621    2.8690 H   0  0  0  0  0  0  0  0  0  0  0  0
    0.9195   -0.7032    2.8716 H   0  0  0  0  0  0  0  0  0  0  0  0
    2.1013   -1.3275    0.2093 H   0  0  0  0  0  0  0  0  0  0  0  0
    1.1896    0.1351    0.6379 H   0  0  0  0  0  0  0  0  0  0  0  0
   -0.8777   -1.2314    0.9959 H   0  0  0  0  0  0  0  0  0  0  0  0
   -0.0109   -2.6989    0.5023 H   0  0  0  0  0  0  0  0  0  0  0  0
   -0.0473   -2.5792   -2.6037 H   0  0  0  0  0  0  0  0  0  0  0  0
    1.3651   -2.4489   -1.5347 H   0  0  0  0  0  0  0  0  0  0  0  0
    0.2513   -0.0999   -3.1510 H   0  0  0  0  0  0  0  0  0  0  0  0
    1.5155   -1.1946   -3.7702 H   0  0  0  0  0  0  0  0  0  0  0  0
    1.4533    1.9273   -2.5388 H   0  0  0  0  0  0  0  0  0  0  0  0
    3.0704    1.7642   -1.8471 H   0  0  0  0  0  0  0  0  0  0  0  0
    3.7553    2.1257   -3.9992 H   0  0  0  0  0  0  0  0  0  0  0  0
    3.5377    0.3743   -4.1301 H   0  0  0  0  0  0  0  0  0  0  0  0
    1.3651    2.3470   -4.8179 H   0  0  0  0  0  0  0  0  0  0  0  0
    3.2333   -0.4714   -6.2775 H   0  0  0  0  0  0  0  0  0  0  0  0
    2.0772   -2.3988   -7.3617 H   0  0  0  0  0  0  0  0  0  0  0  0
   -0.4370   -2.5098   -7.3958 H   0  0  0  0  0  0  0  0  0  0  0  0
   -4.1230    0.2116   -4.8250 H   0  0  0  0  0  0  0  0  0  0  0  0
   -4.7948    2.0364   -3.5921 H   0  0  0  0  0  0  0  0  0  0  0  0
   -3.9433    2.7593   -4.9547 H   0  0  0  0  0  0  0  0  0  0  0  0
   -2.2758    3.6486   -3.5549 H   0  0  0  0  0  0  0  0  0  0  0  0
   -3.5440    3.5494   -2.3723 H   0  0  0  0  0  0  0  0  0  0  0  0
   -1.6890    0.1309   -1.4473 H   0  0  0  0  0  0  0  0  0  0  0  0
  1  2  2  0  0  0  0
  2  3  1  0  0  0  0
  2 28  1  0  0  0  0
  3  4  1  0  0  0  0
  3 57  1  0  0  0  0
  3 58  1  0  0  0  0
  4  5  1  0  0  0  0
  4 27  1  0  0  0  0
  5  6  2  0  0  0  0
  5 59  1  0  0  0  0
  6  7  1  0  0  0  0
  6 22  1  0  0  0  0
  7  8  2  0  0  0  0
  7 20  1  0  0  0  0
  8  9  1  0  0  0  0
  8 17  1  0  0  0  0
  9 10  2  0  0  0  0
  9 15  1  0  0  0  0
 10 11  1  0  0  0  0
 10 60  1  0  0  0  0
 11 12  2  0  0  0  0
 11 61  1  0  0  0  0
 12 13  1  0  0  0  0
 12 14  1  0  0  0  0
 14 15  2  0  0  0  0
 14 62  1  0  0  0  0
 15 16  1  0  0  0  0
 17 18  2  0  0  0  0
 17 19  1  0  0  0  0
 19 20  1  0  0  0  0
 19 63  1  0  0  0  0
 20 21  2  0  0  0  0
 22 23  2  0  0  0  0
 22 27  1  0  0  0  0
 23 24  1  0  0  0  0
 23 64  1  0  0  0  0
 24 25  2  0  0  0  0
 24 65  1  0  0  0  0
 25 26  1  0  0  0  0
 25 66  1  0  0  0  0
 26 27  2  0  0  0  0
 26 67  1  0  0  0  0
 28 29  1  0  0  0  0
 28 68  1  0  0  0  0
 29 30  1  0  0  0  0
 29 69  1  0  0  0  0
 29 70  1  0  0  0  0
 30 31  1  0  0  0  0
 30 71  1  0  0  0  0
 30 72  1  0  0  0  0
 31 32  1  0  0  0  0
 32 33  1  0  0  0  0
 32 73  1  0  0  0  0
 32 74  1  0  0  0  0
 33 34  1  0  0  0  0
 33 75  1  0  0  0  0
 33 76  1  0  0  0  0
 34 35  1  0  0  0  0
 35 36  1  0  0  0  0
 35 77  1  0  0  0  0
 35 78  1  0  0  0  0
 36 37  1  0  0  0  0
 36 79  1  0  0  0  0
 36 80  1  0  0  0  0
 37 38  1  0  0  0  0
 37 81  1  0  0  0  0
 38 39  2  0  0  0  0
 38 43  1  0  0  0  0
 39 40  1  0  0  0  0
 39 82  1  0  0  0  0
 40 41  2  0  0  0  0
 40 83  1  0  0  0  0
 41 42  1  0  0  0  0
 41 84  1  0  0  0  0
 42 43  2  0  0  0  0
 42 55  1  0  0  0  0
 43 44  1  0  0  0  0
 44 45  2  0  0  0  0
 44 46  1  0  0  0  0
 46 47  1  0  0  0  0
 46 55  1  0  0  0  0
 47 48  1  0  0  0  0
 47 53  1  0  0  0  0
 47 85  1  0  0  0  0
 48 49  1  0  0  0  0
 48 86  1  0  0  0  0
 48 87  1  0  0  0  0
 49 50  1  0  0  0  0
 49 88  1  0  0  0  0
 49 89  1  0  0  0  0
 50 51  2  0  0  0  0
 50 52  1  0  0  0  0
 52 53  1  0  0  0  0
 52 90  1  0  0  0  0
 53 54  2  0  0  0  0
 55 56  2  0  0  0  0
M  END
$$$$
protac3895RUN2
  chem.cr 07102519423D
protac3895RUN2
 90 96  0  0  0  0  0  0  0  0999 V2000
    2.2195   -4.3258    1.9525 O   0  0  0  0  0  0  0  0  0  0  0  0
    1.9581   -4.6567    0.8031 C   0  0  0  0  0  0  0  0  0  0  0  0
    1.5907   -6.0661    0.4053 C   0  0  0  0  0  0  0  0  0  0  0  0
    0.1546   -6.3537    0.5631 N   0  0  0  0  0  0  0  0  0  0  0  0
   -0.5026   -6.3148    1.7958 C   0  0  0  0  0  0  0  0  0  0  0  0
   -1.7766   -6.7468    1.6636 C   0  0  0  0  0  0  0  0  0  0  0  0
   -2.7739   -6.7031    2.6043 C   0  0  0  0  0  0  0  0  0  0  0  0
   -2.6168   -6.4688    3.9282 C   0  0  0  0  0  0  0  0  0  0  0  0
   -1.4206   -6.3235    4.6058 C   0  0  0  0  0  0  0  0  0  0  0  0
   -1.0540   -5.0646    5.1209 C   0  0  0  0  0  0  0  0  0  0  0  0
    0.1576   -4.9064    5.8166 C   0  0  0  0  0  0  0  0  0  0  0  0
    1.0038   -6.0093    6.0111 C   0  0  0  0  0  0  0  0  0  0  0  0
    2.5115   -5.8130    6.8952 Cl  0  0  0  0  0  0  0  0  0  0  0  0
    0.6407   -7.2706    5.5158 C   0  0  0  0  0  0  0  0  0  0  0  0
   -0.5687   -7.4314    4.8190 C   0  0  0  0  0  0  0  0  0  0  0  0
   -1.0064   -9.0400    4.2437 Cl  0  0  0  0  0  0  0  0  0  0  0  0
   -3.7862   -6.4343    4.5679 C   0  0  0  0  0  0  0  0  0  0  0  0
   -4.0987   -6.2475    5.7347 O   0  0  0  0  0  0  0  0  0  0  0  0
   -4.7867   -6.6816    3.6472 N   0  0  0  0  0  0  0  0  0  0  0  0
   -4.1165   -6.8074    2.4304 C   0  0  0  0  0  0  0  0  0  0  0  0
   -4.8483   -6.8756    1.4525 O   0  0  0  0  0  0  0  0  0  0  0  0
   -1.8804   -7.1973    0.3336 C   0  0  0  0  0  0  0  0  0  0  0  0
   -2.8198   -8.0420   -0.2949 C   0  0  0  0  0  0  0  0  0  0  0  0
   -2.6146   -8.4352   -1.6351 C   0  0  0  0  0  0  0  0  0  0  0  0
   -1.4488   -8.0543   -2.3331 C   0  0  0  0  0  0  0  0  0  0  0  0
   -0.4498   -7.3125   -1.6777 C   0  0  0  0  0  0  0  0  0  0  0  0
   -0.6899   -6.9199   -0.3514 C   0  0  0  0  0  0  0  0  0  0  0  0
    2.0108   -3.6921   -0.2161 N   0  0  0  0  0  0  0  0  0  0  0  0
    2.3433   -2.2826    0.0413 C   0  0  0  0  0  0  0  0  0  0  0  0
    2.1042   -1.3852   -1.1891 C   0  0  0  0  0  0  0  0  0  0  0  0
    3.0617   -1.7490   -2.1985 O   0  0  0  0  0  0  0  0  0  0  0  0
    2.9492   -1.0824   -3.4744 C   0  0  0  0  0  0  0  0  0  0  0  0
    3.2260    0.4333   -3.3354 C   0  0  0  0  0  0  0  0  0  0  0  0
    2.0041    1.0821   -2.9574 O   0  0  0  0  0  0  0  0  0  0  0  0
    2.0765    2.5088   -2.8871 C   0  0  0  0  0  0  0  0  0  0  0  0
    0.7085    2.9976   -2.3836 C   0  0  0  0  0  0  0  0  0  0  0  0
    0.6598    4.4665   -2.3540 N   0  0  0  0  0  0  0  0  0  0  0  0
    1.1754    5.2783   -1.3497 C   0  0  0  0  0  0  0  0  0  0  0  0
    1.9392    4.7860   -0.2637 C   0  0  0  0  0  0  0  0  0  0  0  0
    2.4217    5.6568    0.7427 C   0  0  0  0  0  0  0  0  0  0  0  0
    2.1329    7.0375    0.6965 C   0  0  0  0  0  0  0  0  0  0  0  0
    1.3688    7.5098   -0.3785 C   0  0  0  0  0  0  0  0  0  0  0  0
    0.9189    6.6545   -1.3801 C   0  0  0  0  0  0  0  0  0  0  0  0
    0.1947    7.4049   -2.2750 C   0  0  0  0  0  0  0  0  0  0  0  0
   -0.3522    7.0400   -3.3099 O   0  0  0  0  0  0  0  0  0  0  0  0
    0.1414    8.7343   -1.8341 N   0  0  0  0  0  0  0  0  0  0  0  0
   -1.0494    9.5755   -2.0802 C   0  0  0  0  0  0  0  0  0  0  0  0
   -0.6697   11.0471   -2.3525 C   0  0  0  0  0  0  0  0  0  0  0  0
   -1.9546   11.8711   -2.5807 C   0  0  0  0  0  0  0  0  0  0  0  0
   -2.9399   11.7078   -1.4436 C   0  0  0  0  0  0  0  0  0  0  0  0
   -3.7862   12.5418   -1.1646 O   0  0  0  0  0  0  0  0  0  0  0  0
   -3.0355   10.4662   -0.8045 N   0  0  0  0  0  0  0  0  0  0  0  0
   -2.0872    9.4479   -0.9678 C   0  0  0  0  0  0  0  0  0  0  0  0
   -2.3237    8.4019   -0.3775 O   0  0  0  0  0  0  0  0  0  0  0  0
    0.8961    8.7739   -0.6473 C   0  0  0  0  0  0  0  0  0  0  0  0
    1.1136    9.8082   -0.0253 O   0  0  0  0  0  0  0  0  0  0  0  0
    1.8940   -6.2506   -0.6295 H   0  0  0  0  0  0  0  0  0  0  0  0
    2.1488   -6.7614    1.0425 H   0  0  0  0  0  0  0  0  0  0  0  0
    0.0096   -5.8553    2.6375 H   0  0  0  0  0  0  0  0  0  0  0  0
   -1.7149   -4.2125    4.9831 H   0  0  0  0  0  0  0  0  0  0  0  0
    0.4362   -3.9335    6.2134 H   0  0  0  0  0  0  0  0  0  0  0  0
    1.2890   -8.1264    5.6834 H   0  0  0  0  0  0  0  0  0  0  0  0
   -5.7287   -6.3356    3.7319 H   0  0  0  0  0  0  0  0  0  0  0  0
   -3.6672   -8.4543    0.2360 H   0  0  0  0  0  0  0  0  0  0  0  0
   -3.3494   -9.0715   -2.1225 H   0  0  0  0  0  0  0  0  0  0  0  0
   -1.2991   -8.3835   -3.3580 H   0  0  0  0  0  0  0  0  0  0  0  0
    0.4859   -7.0898   -2.1791 H   0  0  0  0  0  0  0  0  0  0  0  0
    1.8035   -3.9712   -1.1667 H   0  0  0  0  0  0  0  0  0  0  0  0
    3.3961   -2.2143    0.3494 H   0  0  0  0  0  0  0  0  0  0  0  0
    1.7297   -1.9237    0.8783 H   0  0  0  0  0  0  0  0  0  0  0  0
    2.2379   -0.3397   -0.8870 H   0  0  0  0  0  0  0  0  0  0  0  0
    1.0759   -1.5112   -1.5549 H   0  0  0  0  0  0  0  0  0  0  0  0
    1.9587   -1.2393   -3.9201 H   0  0  0  0  0  0  0  0  0  0  0  0
    3.6908   -1.5064   -4.1641 H   0  0  0  0  0  0  0  0  0  0  0  0
    3.5738    0.8247   -4.3000 H   0  0  0  0  0  0  0  0  0  0  0  0
    4.0147    0.6023   -2.5905 H   0  0  0  0  0  0  0  0  0  0  0  0
    2.8671    2.8275   -2.1948 H   0  0  0  0  0  0  0  0  0  0  0  0
    2.2877    2.9395   -3.8762 H   0  0  0  0  0  0  0  0  0  0  0  0
   -0.0716    2.6192   -3.0573 H   0  0  0  0  0  0  0  0  0  0  0  0
    0.5099    2.5842   -1.3856 H   0  0  0  0  0  0  0  0  0  0  0  0
    0.1175    4.9461   -3.0665 H   0  0  0  0  0  0  0  0  0  0  0  0
    2.1645    3.7288   -0.1854 H   0  0  0  0  0  0  0  0  0  0  0  0
    3.0065    5.2584    1.5675 H   0  0  0  0  0  0  0  0  0  0  0  0
    2.4791    7.7136    1.4739 H   0  0  0  0  0  0  0  0  0  0  0  0
   -1.5359    9.1961   -2.9890 H   0  0  0  0  0  0  0  0  0  0  0  0
   -0.0014   11.1091   -3.2221 H   0  0  0  0  0  0  0  0  0  0  0  0
   -0.1231   11.4602   -1.4954 H   0  0  0  0  0  0  0  0  0  0  0  0
   -1.7044   12.9343   -2.6876 H   0  0  0  0  0  0  0  0  0  0  0  0
   -2.4409   11.5658   -3.5157 H   0  0  0  0  0  0  0  0  0  0  0  0
   -3.7641   10.3330   -0.1181 H   0  0  0  0  0  0  0  0  0  0  0  0
  1  2  2  0  0  0  0
  2  3  1  0  0  0  0
  2 28  1  0  0  0  0
  3  4  1  0  0  0  0
  3 57  1  0  0  0  0
  3 58  1  0  0  0  0
  4  5  1  0  0  0  0
  4 27  1  0  0  0  0
  5  6  2  0  0  0  0
  5 59  1  0  0  0  0
  6  7  1  0  0  0  0
  6 22  1  0  0  0  0
  7  8  2  0  0  0  0
  7 20  1  0  0  0  0
  8  9  1  0  0  0  0
  8 17  1  0  0  0  0
  9 10  2  0  0  0  0
  9 15  1  0  0  0  0
 10 11  1  0  0  0  0
 10 60  1  0  0  0  0
 11 12  2  0  0  0  0
 11 61  1  0  0  0  0
 12 13  1  0  0  0  0
 12 14  1  0  0  0  0
 14 15  2  0  0  0  0
 14 62  1  0  0  0  0
 15 16  1  0  0  0  0
 17 18  2  0  0  0  0
 17 19  1  0  0  0  0
 19 20  1  0  0  0  0
 19 63  1  0  0  0  0
 20 21  2  0  0  0  0
 22 23  2  0  0  0  0
 22 27  1  0  0  0  0
 23 24  1  0  0  0  0
 23 64  1  0  0  0  0
 24 25  2  0  0  0  0
 24 65  1  0  0  0  0
 25 26  1  0  0  0  0
 25 66  1  0  0  0  0
 26 27  2  0  0  0  0
 26 67  1  0  0  0  0
 28 29  1  0  0  0  0
 28 68  1  0  0  0  0
 29 30  1  0  0  0  0
 29 69  1  0  0  0  0
 29 70  1  0  0  0  0
 30 31  1  0  0  0  0
 30 71  1  0  0  0  0
 30 72  1  0  0  0  0
 31 32  1  0  0  0  0
 32 33  1  0  0  0  0
 32 73  1  0  0  0  0
 32 74  1  0  0  0  0
 33 34  1  0  0  0  0
 33 75  1  0  0  0  0
 33 76  1  0  0  0  0
 34 35  1  0  0  0  0
 35 36  1  0  0  0  0
 35 77  1  0  0  0  0
 35 78  1  0  0  0  0
 36 37  1  0  0  0  0
 36 79  1  0  0  0  0
 36 80  1  0  0  0  0
 37 38  1  0  0  0  0
 37 81  1  0  0  0  0
 38 39  2  0  0  0  0
 38 43  1  0  0  0  0
 39 40  1  0  0  0  0
 39 82  1  0  0  0  0
 40 41  2  0  0  0  0
 40 83  1  0  0  0  0
 41 42  1  0  0  0  0
 41 84  1  0  0  0  0
 42 43  2  0  0  0  0
 42 55  1  0  0  0  0
 43 44  1  0  0  0  0
 44 45  2  0  0  0  0
 44 46  1  0  0  0  0
 46 47  1  0  0  0  0
 46 55  1  0  0  0  0
 47 48  1  0  0  0  0
 47 53  1  0  0  0  0
 47 85  1  0  0  0  0
 48 49  1  0  0  0  0
 48 86  1  0  0  0  0
 48 87  1  0  0  0  0
 49 50  1  0  0  0  0
 49 88  1  0  0  0  0
 49 89  1  0  0  0  0
 50 51  2  0  0  0  0
 50 52  1  0  0  0  0
 52 53  1  0  0  0  0
 52 90  1  0  0  0  0
 53 54  2  0  0  0  0
 55 56  2  0  0  0  0
M  END
$$$$
protac3895RUN2
  chem.cr 07102519423D
protac3895RUN2
 90 96  0  0  0  0  0  0  0  0999 V2000
    1.7464   -1.0897    0.2369 O   0  0  0  0  0  0  0  0  0  0  0  0
    1.3445   -1.4746   -0.8533 C   0  0  0  0  0  0  0  0  0  0  0  0
    2.1929   -2.2667   -1.8259 C   0  0  0  0  0  0  0  0  0  0  0  0
    1.6923   -3.6392   -2.0566 N   0  0  0  0  0  0  0  0  0  0  0  0
    1.4515   -4.4197   -0.9292 C   0  0  0  0  0  0  0  0  0  0  0  0
    0.3115   -5.1477   -1.0303 C   0  0  0  0  0  0  0  0  0  0  0  0
   -0.2562   -5.9173   -0.0322 C   0  0  0  0  0  0  0  0  0  0  0  0
    0.2289   -6.0609    1.2343 C   0  0  0  0  0  0  0  0  0  0  0  0
    1.3446   -5.4568    1.7763 C   0  0  0  0  0  0  0  0  0  0  0  0
    1.2265   -4.1734    2.3477 C   0  0  0  0  0  0  0  0  0  0  0  0
    2.3604   -3.5144    2.8527 C   0  0  0  0  0  0  0  0  0  0  0  0
    3.6124   -4.1469    2.8144 C   0  0  0  0  0  0  0  0  0  0  0  0
    5.0319   -3.3213    3.4390 Cl  0  0  0  0  0  0  0  0  0  0  0  0
    3.7319   -5.4410    2.2811 C   0  0  0  0  0  0  0  0  0  0  0  0
    2.6019   -6.0955    1.7606 C   0  0  0  0  0  0  0  0  0  0  0  0
    2.7816   -7.7052    1.0635 Cl  0  0  0  0  0  0  0  0  0  0  0  0
   -0.5172   -6.8700    1.9866 C   0  0  0  0  0  0  0  0  0  0  0  0
   -0.4353   -7.2686    3.1394 O   0  0  0  0  0  0  0  0  0  0  0  0
   -1.5907   -7.2719    1.2265 N   0  0  0  0  0  0  0  0  0  0  0  0
   -1.3851   -6.6839   -0.0181 C   0  0  0  0  0  0  0  0  0  0  0  0
   -2.2573   -6.9698   -0.8191 O   0  0  0  0  0  0  0  0  0  0  0  0
   -0.1506   -4.8758   -2.3436 C   0  0  0  0  0  0  0  0  0  0  0  0
   -1.2172   -5.3658   -3.1364 C   0  0  0  0  0  0  0  0  0  0  0  0
   -1.4361   -4.8483   -4.4302 C   0  0  0  0  0  0  0  0  0  0  0  0
   -0.5870   -3.8708   -4.9792 C   0  0  0  0  0  0  0  0  0  0  0  0
    0.5119   -3.4131   -4.2353 C   0  0  0  0  0  0  0  0  0  0  0  0
    0.6945   -3.9272   -2.9431 C   0  0  0  0  0  0  0  0  0  0  0  0
   -0.0333   -1.5156   -1.0857 N   0  0  0  0  0  0  0  0  0  0  0  0
   -0.9934   -0.5891   -0.4775 C   0  0  0  0  0  0  0  0  0  0  0  0
   -2.1256   -0.2769   -1.4775 C   0  0  0  0  0  0  0  0  0  0  0  0
   -1.5698    0.3724   -2.6370 O   0  0  0  0  0  0  0  0  0  0  0  0
   -1.2842    1.7761   -2.5070 C   0  0  0  0  0  0  0  0  0  0  0  0
    0.2061    2.0300   -2.8159 C   0  0  0  0  0  0  0  0  0  0  0  0
    0.9829    1.7083   -1.6500 O   0  0  0  0  0  0  0  0  0  0  0  0
    1.8736    2.7358   -1.1899 C   0  0  0  0  0  0  0  0  0  0  0  0
    2.6376    2.1893    0.0353 C   0  0  0  0  0  0  0  0  0  0  0  0
    1.7090    1.9508    1.1514 N   0  0  0  0  0  0  0  0  0  0  0  0
    1.5964    2.8754    2.1776 C   0  0  0  0  0  0  0  0  0  0  0  0
    2.6485    3.1135    3.0883 C   0  0  0  0  0  0  0  0  0  0  0  0
    2.5402    4.1280    4.0723 C   0  0  0  0  0  0  0  0  0  0  0  0
    1.3911    4.9466    4.1347 C   0  0  0  0  0  0  0  0  0  0  0  0
    0.3510    4.6946    3.2285 C   0  0  0  0  0  0  0  0  0  0  0  0
    0.4449    3.6584    2.3009 C   0  0  0  0  0  0  0  0  0  0  0  0
   -0.6972    3.6684    1.5469 C   0  0  0  0  0  0  0  0  0  0  0  0
   -1.1097    2.8123    0.7764 O   0  0  0  0  0  0  0  0  0  0  0  0
   -1.4917    4.7364    1.9535 N   0  0  0  0  0  0  0  0  0  0  0  0
   -2.5769    5.2872    1.1216 C   0  0  0  0  0  0  0  0  0  0  0  0
   -1.9811    6.1872    0.0196 C   0  0  0  0  0  0  0  0  0  0  0  0
   -3.1191    6.7412   -0.8605 C   0  0  0  0  0  0  0  0  0  0  0  0
   -4.1858    7.4254   -0.0336 C   0  0  0  0  0  0  0  0  0  0  0  0
   -4.9586    8.2492   -0.4975 O   0  0  0  0  0  0  0  0  0  0  0  0
   -4.4644    6.9464    1.2527 N   0  0  0  0  0  0  0  0  0  0  0  0
   -3.6667    6.0005    1.9149 C   0  0  0  0  0  0  0  0  0  0  0  0
   -4.0977    5.6001    2.9869 O   0  0  0  0  0  0  0  0  0  0  0  0
   -0.8361    5.3672    3.0262 C   0  0  0  0  0  0  0  0  0  0  0  0
   -1.0493    6.5453    3.2976 O   0  0  0  0  0  0  0  0  0  0  0  0
    2.2449   -1.7265   -2.7776 H   0  0  0  0  0  0  0  0  0  0  0  0
    3.2113   -2.3343   -1.4259 H   0  0  0  0  0  0  0  0  0  0  0  0
    2.1453   -4.2905   -0.1077 H   0  0  0  0  0  0  0  0  0  0  0  0
    0.2570   -3.6821    2.3725 H   0  0  0  0  0  0  0  0  0  0  0  0
    2.2637   -2.5139    3.2689 H   0  0  0  0  0  0  0  0  0  0  0  0
    4.6998   -5.9309    2.2609 H   0  0  0  0  0  0  0  0  0  0  0  0
   -2.1295   -8.1086    1.3820 H   0  0  0  0  0  0  0  0  0  0  0  0
   -1.8863   -6.1435   -2.8293 H   0  0  0  0  0  0  0  0  0  0  0  0
   -2.2731   -5.2219   -5.0158 H   0  0  0  0  0  0  0  0  0  0  0  0
   -0.7724   -3.4887   -5.9810 H   0  0  0  0  0  0  0  0  0  0  0  0
    1.1978   -2.6860   -4.6584 H   0  0  0  0  0  0  0  0  0  0  0  0
   -0.3570   -2.1069   -1.8433 H   0  0  0  0  0  0  0  0  0  0  0  0
   -0.4821    0.3338   -0.1784 H   0  0  0  0  0  0  0  0  0  0  0  0
   -1.4095   -1.0492    0.4286 H   0  0  0  0  0  0  0  0  0  0  0  0
   -2.8927    0.3469   -0.9993 H   0  0  0  0  0  0  0  0  0  0  0  0
   -2.6001   -1.2203   -1.7774 H   0  0  0  0  0  0  0  0  0  0  0  0
   -1.5243    2.1528   -1.5082 H   0  0  0  0  0  0  0  0  0  0  0  0
   -1.8957    2.3379   -3.2225 H   0  0  0  0  0  0  0  0  0  0  0  0
    0.3290    3.0858   -3.0908 H   0  0  0  0  0  0  0  0  0  0  0  0
    0.5203    1.4183   -3.6708 H   0  0  0  0  0  0  0  0  0  0  0  0
    2.5906    3.0024   -1.9777 H   0  0  0  0  0  0  0  0  0  0  0  0
    1.3112    3.6372   -0.9077 H   0  0  0  0  0  0  0  0  0  0  0  0
    3.1343    1.2507   -0.2413 H   0  0  0  0  0  0  0  0  0  0  0  0
    3.4101    2.9102    0.3313 H   0  0  0  0  0  0  0  0  0  0  0  0
    0.8213    1.5514    0.8658 H   0  0  0  0  0  0  0  0  0  0  0  0
    3.5477    2.5087    3.0330 H   0  0  0  0  0  0  0  0  0  0  0  0
    3.3574    4.2909    4.7699 H   0  0  0  0  0  0  0  0  0  0  0  0
    1.3092    5.7519    4.8607 H   0  0  0  0  0  0  0  0  0  0  0  0
   -3.0695    4.4348    0.6347 H   0  0  0  0  0  0  0  0  0  0  0  0
   -1.2623    5.6201   -0.5869 H   0  0  0  0  0  0  0  0  0  0  0  0
   -1.4303    7.0178    0.4833 H   0  0  0  0  0  0  0  0  0  0  0  0
   -2.7139    7.4518   -1.5932 H   0  0  0  0  0  0  0  0  0  0  0  0
   -3.5832    5.9282   -1.4343 H   0  0  0  0  0  0  0  0  0  0  0  0
   -5.2424    7.3452    1.7557 H   0  0  0  0  0  0  0  0  0  0  0  0
  1  2  2  0  0  0  0
  2  3  1  0  0  0  0
  2 28  1  0  0  0  0
  3  4  1  0  0  0  0
  3 57  1  0  0  0  0
  3 58  1  0  0  0  0
  4  5  1  0  0  0  0
  4 27  1  0  0  0  0
  5  6  2  0  0  0  0
  5 59  1  0  0  0  0
  6  7  1  0  0  0  0
  6 22  1  0  0  0  0
  7  8  2  0  0  0  0
  7 20  1  0  0  0  0
  8  9  1  0  0  0  0
  8 17  1  0  0  0  0
  9 10  2  0  0  0  0
  9 15  1  0  0  0  0
 10 11  1  0  0  0  0
 10 60  1  0  0  0  0
 11 12  2  0  0  0  0
 11 61  1  0  0  0  0
 12 13  1  0  0  0  0
 12 14  1  0  0  0  0
 14 15  2  0  0  0  0
 14 62  1  0  0  0  0
 15 16  1  0  0  0  0
 17 18  2  0  0  0  0
 17 19  1  0  0  0  0
 19 20  1  0  0  0  0
 19 63  1  0  0  0  0
 20 21  2  0  0  0  0
 22 23  2  0  0  0  0
 22 27  1  0  0  0  0
 23 24  1  0  0  0  0
 23 64  1  0  0  0  0
 24 25  2  0  0  0  0
 24 65  1  0  0  0  0
 25 26  1  0  0  0  0
 25 66  1  0  0  0  0
 26 27  2  0  0  0  0
 26 67  1  0  0  0  0
 28 29  1  0  0  0  0
 28 68  1  0  0  0  0
 29 30  1  0  0  0  0
 29 69  1  0  0  0  0
 29 70  1  0  0  0  0
 30 31  1  0  0  0  0
 30 71  1  0  0  0  0
 30 72  1  0  0  0  0
 31 32  1  0  0  0  0
 32 33  1  0  0  0  0
 32 73  1  0  0  0  0
 32 74  1  0  0  0  0
 33 34  1  0  0  0  0
 33 75  1  0  0  0  0
 33 76  1  0  0  0  0
 34 35  1  0  0  0  0
 35 36  1  0  0  0  0
 35 77  1  0  0  0  0
 35 78  1  0  0  0  0
 36 37  1  0  0  0  0
 36 79  1  0  0  0  0
 36 80  1  0  0  0  0
 37 38  1  0  0  0  0
 37 81  1  0  0  0  0
 38 39  2  0  0  0  0
 38 43  1  0  0  0  0
 39 40  1  0  0  0  0
 39 82  1  0  0  0  0
 40 41  2  0  0  0  0
 40 83  1  0  0  0  0
 41 42  1  0  0  0  0
 41 84  1  0  0  0  0
 42 43  2  0  0  0  0
 42 55  1  0  0  0  0
 43 44  1  0  0  0  0
 44 45  2  0  0  0  0
 44 46  1  0  0  0  0
 46 47  1  0  0  0  0
 46 55  1  0  0  0  0
 47 48  1  0  0  0  0
 47 53  1  0  0  0  0
 47 85  1  0  0  0  0
 48 49  1  0  0  0  0
 48 86  1  0  0  0  0
 48 87  1  0  0  0  0
 49 50  1  0  0  0  0
 49 88  1  0  0  0  0
 49 89  1  0  0  0  0
 50 51  2  0  0  0  0
 50 52  1  0  0  0  0
 52 53  1  0  0  0  0
 52 90  1  0  0  0  0
 53 54  2  0  0  0  0
 55 56  2  0  0  0  0
M  END
$$$$
protac3895RUN2
  chem.cr 07102519423D
protac3895RUN2
 90 96  0  0  0  0  0  0  0  0999 V2000
   -0.3791   -0.9365   -1.2695 O   0  0  0  0  0  0  0  0  0  0  0  0
    0.1897   -1.5029   -2.1943 C   0  0  0  0  0  0  0  0  0  0  0  0
    1.4030   -2.3790   -2.0072 C   0  0  0  0  0  0  0  0  0  0  0  0
    1.0801   -3.8077   -1.8304 N   0  0  0  0  0  0  0  0  0  0  0  0
    1.0181   -4.3896   -0.5634 C   0  0  0  0  0  0  0  0  0  0  0  0
    0.1973   -5.4655   -0.5565 C   0  0  0  0  0  0  0  0  0  0  0  0
   -0.2014   -6.1967    0.5357 C   0  0  0  0  0  0  0  0  0  0  0  0
    0.3150   -6.1101    1.7877 C   0  0  0  0  0  0  0  0  0  0  0  0
    1.3611   -5.3064    2.1994 C   0  0  0  0  0  0  0  0  0  0  0  0
    1.0805   -4.1141    2.8945 C   0  0  0  0  0  0  0  0  0  0  0  0
    2.1250   -3.2645    3.2962 C   0  0  0  0  0  0  0  0  0  0  0  0
    3.4566   -3.6077    3.0127 C   0  0  0  0  0  0  0  0  0  0  0  0
    4.7640   -2.5444    3.5163 Cl  0  0  0  0  0  0  0  0  0  0  0  0
    3.7469   -4.8033    2.3359 C   0  0  0  0  0  0  0  0  0  0  0  0
    2.7038   -5.6533    1.9289 C   0  0  0  0  0  0  0  0  0  0  0  0
    3.0985   -7.1455    1.0733 Cl  0  0  0  0  0  0  0  0  0  0  0  0
   -0.3131   -6.9123    2.6464 C   0  0  0  0  0  0  0  0  0  0  0  0
   -0.1899   -7.1212    3.8460 O   0  0  0  0  0  0  0  0  0  0  0  0
   -1.2853   -7.6051    1.9528 N   0  0  0  0  0  0  0  0  0  0  0  0
   -1.2130   -7.0986    0.6560 C   0  0  0  0  0  0  0  0  0  0  0  0
   -2.1174   -7.4778   -0.0737 O   0  0  0  0  0  0  0  0  0  0  0  0
   -0.2089   -5.6173   -1.8986 C   0  0  0  0  0  0  0  0  0  0  0  0
   -0.8371   -6.6777   -2.5866 C   0  0  0  0  0  0  0  0  0  0  0  0
   -1.0740   -6.5679   -3.9733 C   0  0  0  0  0  0  0  0  0  0  0  0
   -0.6219   -5.4471   -4.6997 C   0  0  0  0  0  0  0  0  0  0  0  0
    0.1144   -4.4432   -4.0474 C   0  0  0  0  0  0  0  0  0  0  0  0
    0.3014   -4.5610   -2.6638 C   0  0  0  0  0  0  0  0  0  0  0  0
   -0.0448   -1.0751   -3.5075 N   0  0  0  0  0  0  0  0  0  0  0  0
   -1.0091   -0.0300   -3.8695 C   0  0  0  0  0  0  0  0  0  0  0  0
   -0.6585    0.5496   -5.2575 C   0  0  0  0  0  0  0  0  0  0  0  0
    0.6705    1.0954   -5.1933 O   0  0  0  0  0  0  0  0  0  0  0  0
    0.7796    2.4061   -4.6103 C   0  0  0  0  0  0  0  0  0  0  0  0
    2.0348    2.4461   -3.7204 C   0  0  0  0  0  0  0  0  0  0  0  0
    1.6589    1.9645   -2.4220 O   0  0  0  0  0  0  0  0  0  0  0  0
    2.6790    2.0602   -1.4205 C   0  0  0  0  0  0  0  0  0  0  0  0
    2.0758    1.5954   -0.0782 C   0  0  0  0  0  0  0  0  0  0  0  0
    1.0957    2.5666    0.4365 N   0  0  0  0  0  0  0  0  0  0  0  0
    1.3815    3.6817    1.2220 C   0  0  0  0  0  0  0  0  0  0  0  0
    2.7002    4.1270    1.4844 C   0  0  0  0  0  0  0  0  0  0  0  0
    2.9412    5.2767    2.2779 C   0  0  0  0  0  0  0  0  0  0  0  0
    1.8690    6.0101    2.8257 C   0  0  0  0  0  0  0  0  0  0  0  0
    0.5700    5.5590    2.5671 C   0  0  0  0  0  0  0  0  0  0  0  0
    0.3358    4.4244    1.7882 C   0  0  0  0  0  0  0  0  0  0  0  0
   -1.0249    4.2382    1.7261 C   0  0  0  0  0  0  0  0  0  0  0  0
   -1.6606    3.4476    1.0371 O   0  0  0  0  0  0  0  0  0  0  0  0
   -1.6487    5.2639    2.4402 N   0  0  0  0  0  0  0  0  0  0  0  0
   -3.0511    5.2255    2.8943 C   0  0  0  0  0  0  0  0  0  0  0  0
   -3.8854    6.2507    2.1015 C   0  0  0  0  0  0  0  0  0  0  0  0
   -5.3419    6.2339    2.6105 C   0  0  0  0  0  0  0  0  0  0  0  0
   -5.4143    6.4510    4.1044 C   0  0  0  0  0  0  0  0  0  0  0  0
   -6.4030    6.8909    4.6690 O   0  0  0  0  0  0  0  0  0  0  0  0
   -4.3960    5.9324    4.9139 N   0  0  0  0  0  0  0  0  0  0  0  0
   -3.1979    5.4120    4.4022 C   0  0  0  0  0  0  0  0  0  0  0  0
   -2.4500    4.9008    5.2245 O   0  0  0  0  0  0  0  0  0  0  0  0
   -0.6400    6.0738    2.9765 C   0  0  0  0  0  0  0  0  0  0  0  0
   -0.8716    7.2137    3.3643 O   0  0  0  0  0  0  0  0  0  0  0  0
    2.0785   -2.2765   -2.8636 H   0  0  0  0  0  0  0  0  0  0  0  0
    1.9406   -2.0212   -1.1230 H   0  0  0  0  0  0  0  0  0  0  0  0
    1.5169   -3.8773    0.2510 H   0  0  0  0  0  0  0  0  0  0  0  0
    0.0513   -3.8438    3.1161 H   0  0  0  0  0  0  0  0  0  0  0  0
    1.8990   -2.3446    3.8291 H   0  0  0  0  0  0  0  0  0  0  0  0
    4.7791   -5.0736    2.1295 H   0  0  0  0  0  0  0  0  0  0  0  0
   -2.1363   -7.9524    2.3672 H   0  0  0  0  0  0  0  0  0  0  0  0
   -1.0988   -7.6067   -2.1048 H   0  0  0  0  0  0  0  0  0  0  0  0
   -1.5813   -7.3737   -4.4967 H   0  0  0  0  0  0  0  0  0  0  0  0
   -0.7973   -5.3877   -5.7703 H   0  0  0  0  0  0  0  0  0  0  0  0
    0.5445   -3.6202   -4.6070 H   0  0  0  0  0  0  0  0  0  0  0  0
    0.5982   -1.3760   -4.2265 H   0  0  0  0  0  0  0  0  0  0  0  0
   -0.9906    0.7627   -3.1085 H   0  0  0  0  0  0  0  0  0  0  0  0
   -2.0176   -0.4634   -3.8853 H   0  0  0  0  0  0  0  0  0  0  0  0
   -1.3895    1.3154   -5.5523 H   0  0  0  0  0  0  0  0  0  0  0  0
   -0.6985   -0.2551   -6.0032 H   0  0  0  0  0  0  0  0  0  0  0  0
   -0.0982    2.6633   -4.0027 H   0  0  0  0  0  0  0  0  0  0  0  0
    0.8717    3.1558   -5.4051 H   0  0  0  0  0  0  0  0  0  0  0  0
    2.3947    3.4807   -3.6534 H   0  0  0  0  0  0  0  0  0  0  0  0
    2.8292    1.8301   -4.1619 H   0  0  0  0  0  0  0  0  0  0  0  0
    3.5295    1.4173   -1.6814 H   0  0  0  0  0  0  0  0  0  0  0  0
    3.0385    3.0938   -1.3259 H   0  0  0  0  0  0  0  0  0  0  0  0
    1.5788    0.6281   -0.2288 H   0  0  0  0  0  0  0  0  0  0  0  0
    2.8751    1.4409    0.6570 H   0  0  0  0  0  0  0  0  0  0  0  0
    0.1134    2.3899    0.2469 H   0  0  0  0  0  0  0  0  0  0  0  0
    3.5497    3.5950    1.0727 H   0  0  0  0  0  0  0  0  0  0  0  0
    3.9624    5.6002    2.4665 H   0  0  0  0  0  0  0  0  0  0  0  0
    2.0380    6.8955    3.4352 H   0  0  0  0  0  0  0  0  0  0  0  0
   -3.4427    4.2235    2.6726 H   0  0  0  0  0  0  0  0  0  0  0  0
   -3.8435    6.0166    1.0285 H   0  0  0  0  0  0  0  0  0  0  0  0
   -3.4539    7.2534    2.2365 H   0  0  0  0  0  0  0  0  0  0  0  0
   -5.9285    7.0094    2.1040 H   0  0  0  0  0  0  0  0  0  0  0  0
   -5.8153    5.2736    2.3708 H   0  0  0  0  0  0  0  0  0  0  0  0
   -4.5014    5.9909    5.9163 H   0  0  0  0  0  0  0  0  0  0  0  0
  1  2  2  0  0  0  0
  2  3  1  0  0  0  0
  2 28  1  0  0  0  0
  3  4  1  0  0  0  0
  3 57  1  0  0  0  0
  3 58  1  0  0  0  0
  4  5  1  0  0  0  0
  4 27  1  0  0  0  0
  5  6  2  0  0  0  0
  5 59  1  0  0  0  0
  6  7  1  0  0  0  0
  6 22  1  0  0  0  0
  7  8  2  0  0  0  0
  7 20  1  0  0  0  0
  8  9  1  0  0  0  0
  8 17  1  0  0  0  0
  9 10  2  0  0  0  0
  9 15  1  0  0  0  0
 10 11  1  0  0  0  0
 10 60  1  0  0  0  0
 11 12  2  0  0  0  0
 11 61  1  0  0  0  0
 12 13  1  0  0  0  0
 12 14  1  0  0  0  0
 14 15  2  0  0  0  0
 14 62  1  0  0  0  0
 15 16  1  0  0  0  0
 17 18  2  0  0  0  0
 17 19  1  0  0  0  0
 19 20  1  0  0  0  0
 19 63  1  0  0  0  0
 20 21  2  0  0  0  0
 22 23  2  0  0  0  0
 22 27  1  0  0  0  0
 23 24  1  0  0  0  0
 23 64  1  0  0  0  0
 24 25  2  0  0  0  0
 24 65  1  0  0  0  0
 25 26  1  0  0  0  0
 25 66  1  0  0  0  0
 26 27  2  0  0  0  0
 26 67  1  0  0  0  0
 28 29  1  0  0  0  0
 28 68  1  0  0  0  0
 29 30  1  0  0  0  0
 29 69  1  0  0  0  0
 29 70  1  0  0  0  0
 30 31  1  0  0  0  0
 30 71  1  0  0  0  0
 30 72  1  0  0  0  0
 31 32  1  0  0  0  0
 32 33  1  0  0  0  0
 32 73  1  0  0  0  0
 32 74  1  0  0  0  0
 33 34  1  0  0  0  0
 33 75  1  0  0  0  0
 33 76  1  0  0  0  0
 34 35  1  0  0  0  0
 35 36  1  0  0  0  0
 35 77  1  0  0  0  0
 35 78  1  0  0  0  0
 36 37  1  0  0  0  0
 36 79  1  0  0  0  0
 36 80  1  0  0  0  0
 37 38  1  0  0  0  0
 37 81  1  0  0  0  0
 38 39  2  0  0  0  0
 38 43  1  0  0  0  0
 39 40  1  0  0  0  0
 39 82  1  0  0  0  0
 40 41  2  0  0  0  0
 40 83  1  0  0  0  0
 41 42  1  0  0  0  0
 41 84  1  0  0  0  0
 42 43  2  0  0  0  0
 42 55  1  0  0  0  0
 43 44  1  0  0  0  0
 44 45  2  0  0  0  0
 44 46  1  0  0  0  0
 46 47  1  0  0  0  0
 46 55  1  0  0  0  0
 47 48  1  0  0  0  0
 47 53  1  0  0  0  0
 47 85  1  0  0  0  0
 48 49  1  0  0  0  0
 48 86  1  0  0  0  0
 48 87  1  0  0  0  0
 49 50  1  0  0  0  0
 49 88  1  0  0  0  0
 49 89  1  0  0  0  0
 50 51  2  0  0  0  0
 50 52  1  0  0  0  0
 52 53  1  0  0  0  0
 52 90  1  0  0  0  0
 53 54  2  0  0  0  0
 55 56  2  0  0  0  0
M  END
$$$$
protac3895RUN2
  chem.cr 07102519423D
protac3895RUN2
 90 96  0  0  0  0  0  0  0  0999 V2000
   -2.3094   -3.9677   -2.8165 O   0  0  0  0  0  0  0  0  0  0  0  0
   -1.2960   -3.3933   -2.4480 C   0  0  0  0  0  0  0  0  0  0  0  0
   -1.0047   -3.1185   -0.9882 C   0  0  0  0  0  0  0  0  0  0  0  0
   -1.7210   -1.9415   -0.4607 N   0  0  0  0  0  0  0  0  0  0  0  0
   -3.0437   -2.1162   -0.0374 C   0  0  0  0  0  0  0  0  0  0  0  0
   -3.3291   -1.3705    1.0564 C   0  0  0  0  0  0  0  0  0  0  0  0
   -4.5527   -1.2273    1.6668 C   0  0  0  0  0  0  0  0  0  0  0  0
   -5.6613   -1.9748    1.4227 C   0  0  0  0  0  0  0  0  0  0  0  0
   -5.7674   -3.0444    0.5547 C   0  0  0  0  0  0  0  0  0  0  0  0
   -5.2475   -4.3014    0.9226 C   0  0  0  0  0  0  0  0  0  0  0  0
   -5.3439   -5.3949    0.0435 C   0  0  0  0  0  0  0  0  0  0  0  0
   -5.9765   -5.2400   -1.2005 C   0  0  0  0  0  0  0  0  0  0  0  0
   -6.1129   -6.6102   -2.2950 Cl  0  0  0  0  0  0  0  0  0  0  0  0
   -6.5027   -3.9931   -1.5731 C   0  0  0  0  0  0  0  0  0  0  0  0
   -6.3980   -2.8967   -0.7008 C   0  0  0  0  0  0  0  0  0  0  0  0
   -7.0381   -1.3356   -1.2142 Cl  0  0  0  0  0  0  0  0  0  0  0  0
   -6.6994   -1.5989    2.1710 C   0  0  0  0  0  0  0  0  0  0  0  0
   -7.8421   -2.0170    2.3020 O   0  0  0  0  0  0  0  0  0  0  0  0
   -6.3014   -0.5180    2.9276 N   0  0  0  0  0  0  0  0  0  0  0  0
   -4.9619   -0.3240    2.6004 C   0  0  0  0  0  0  0  0  0  0  0  0
   -4.4559    0.6449    3.1435 O   0  0  0  0  0  0  0  0  0  0  0  0
   -2.1091   -0.7392    1.3807 C   0  0  0  0  0  0  0  0  0  0  0  0
   -1.6654   -0.0396    2.5267 C   0  0  0  0  0  0  0  0  0  0  0  0
   -0.3479    0.4688    2.5700 C   0  0  0  0  0  0  0  0  0  0  0  0
    0.5585    0.2262    1.5187 C   0  0  0  0  0  0  0  0  0  0  0  0
    0.1678   -0.5756    0.4339 C   0  0  0  0  0  0  0  0  0  0  0  0
   -1.1499   -1.0552    0.4105 C   0  0  0  0  0  0  0  0  0  0  0  0
   -0.2324   -3.4072   -3.3602 N   0  0  0  0  0  0  0  0  0  0  0  0
    0.9378   -2.5172   -3.2964 C   0  0  0  0  0  0  0  0  0  0  0  0
    2.2378   -3.3070   -3.0730 C   0  0  0  0  0  0  0  0  0  0  0  0
    3.2837   -2.3509   -2.8572 O   0  0  0  0  0  0  0  0  0  0  0  0
    4.5896   -2.9172   -2.6715 C   0  0  0  0  0  0  0  0  0  0  0  0
    5.5288   -1.8105   -2.1574 C   0  0  0  0  0  0  0  0  0  0  0  0
    5.1683   -1.5458   -0.7916 O   0  0  0  0  0  0  0  0  0  0  0  0
    6.0998   -0.7767   -0.0139 C   0  0  0  0  0  0  0  0  0  0  0  0
    6.1296    0.6983   -0.4890 C   0  0  0  0  0  0  0  0  0  0  0  0
    4.8508    1.3905   -0.2461 N   0  0  0  0  0  0  0  0  0  0  0  0
    4.4805    1.9974    0.9507 C   0  0  0  0  0  0  0  0  0  0  0  0
    5.1149    1.7176    2.1870 C   0  0  0  0  0  0  0  0  0  0  0  0
    4.6894    2.3384    3.3867 C   0  0  0  0  0  0  0  0  0  0  0  0
    3.6167    3.2515    3.3793 C   0  0  0  0  0  0  0  0  0  0  0  0
    3.0045    3.5281    2.1527 C   0  0  0  0  0  0  0  0  0  0  0  0
    3.4288    2.9244    0.9701 C   0  0  0  0  0  0  0  0  0  0  0  0
    2.6497    3.4134   -0.0546 C   0  0  0  0  0  0  0  0  0  0  0  0
    2.8350    3.3048   -1.2620 O   0  0  0  0  0  0  0  0  0  0  0  0
    1.7573    4.3550    0.4721 N   0  0  0  0  0  0  0  0  0  0  0  0
    0.5470    4.8287   -0.2308 C   0  0  0  0  0  0  0  0  0  0  0  0
    0.3637    6.3557   -0.0663 C   0  0  0  0  0  0  0  0  0  0  0  0
   -0.9909    6.8013   -0.6535 C   0  0  0  0  0  0  0  0  0  0  0  0
   -2.1314    6.0154   -0.0480 C   0  0  0  0  0  0  0  0  0  0  0  0
   -3.2627    6.4573    0.0717 O   0  0  0  0  0  0  0  0  0  0  0  0
   -1.9393    4.6593    0.2327 N   0  0  0  0  0  0  0  0  0  0  0  0
   -0.6866    4.0334    0.1816 C   0  0  0  0  0  0  0  0  0  0  0  0
   -0.7080    2.8139    0.2240 O   0  0  0  0  0  0  0  0  0  0  0  0
    1.9690    4.3829    1.8593 C   0  0  0  0  0  0  0  0  0  0  0  0
    1.2117    4.9392    2.6463 O   0  0  0  0  0  0  0  0  0  0  0  0
   -1.3249   -3.9924   -0.4100 H   0  0  0  0  0  0  0  0  0  0  0  0
    0.0689   -3.0047   -0.8130 H   0  0  0  0  0  0  0  0  0  0  0  0
   -3.6813   -2.7401   -0.6566 H   0  0  0  0  0  0  0  0  0  0  0  0
   -4.7628   -4.4223    1.8874 H   0  0  0  0  0  0  0  0  0  0  0  0
   -4.9354   -6.3614    0.3260 H   0  0  0  0  0  0  0  0  0  0  0  0
   -6.9874   -3.8739   -2.5382 H   0  0  0  0  0  0  0  0  0  0  0  0
   -6.7501   -0.1923    3.7688 H   0  0  0  0  0  0  0  0  0  0  0  0
   -2.2770    0.0884    3.4040 H   0  0  0  0  0  0  0  0  0  0  0  0
   -0.0263    1.0501    3.4295 H   0  0  0  0  0  0  0  0  0  0  0  0
    1.5636    0.6367    1.5611 H   0  0  0  0  0  0  0  0  0  0  0  0
    0.8722   -0.8097   -0.3568 H   0  0  0  0  0  0  0  0  0  0  0  0
   -0.3964   -3.9255   -4.2145 H   0  0  0  0  0  0  0  0  0  0  0  0
    0.8104   -1.7754   -2.4987 H   0  0  0  0  0  0  0  0  0  0  0  0
    1.0146   -1.9597   -4.2388 H   0  0  0  0  0  0  0  0  0  0  0  0
    2.4472   -3.9355   -3.9489 H   0  0  0  0  0  0  0  0  0  0  0  0
    2.1276   -3.9583   -2.1958 H   0  0  0  0  0  0  0  0  0  0  0  0
    4.9730   -3.3146   -3.6207 H   0  0  0  0  0  0  0  0  0  0  0  0
    4.5670   -3.7340   -1.9372 H   0  0  0  0  0  0  0  0  0  0  0  0
    5.4266   -0.9148   -2.7829 H   0  0  0  0  0  0  0  0  0  0  0  0
    6.5656   -2.1665   -2.2198 H   0  0  0  0  0  0  0  0  0  0  0  0
    5.8050   -0.8191    1.0408 H   0  0  0  0  0  0  0  0  0  0  0  0
    7.1056   -1.2086   -0.0875 H   0  0  0  0  0  0  0  0  0  0  0  0
    6.9348    1.2299    0.0345 H   0  0  0  0  0  0  0  0  0  0  0  0
    6.3696    0.7357   -1.5582 H   0  0  0  0  0  0  0  0  0  0  0  0
    4.2681    1.6128   -1.0474 H   0  0  0  0  0  0  0  0  0  0  0  0
    5.9398    1.0167    2.2339 H   0  0  0  0  0  0  0  0  0  0  0  0
    5.1910    2.1057    4.3229 H   0  0  0  0  0  0  0  0  0  0  0  0
    3.2782    3.7354    4.2923 H   0  0  0  0  0  0  0  0  0  0  0  0
    0.6875    4.6236   -1.3005 H   0  0  0  0  0  0  0  0  0  0  0  0
    1.1974    6.8888   -0.5404 H   0  0  0  0  0  0  0  0  0  0  0  0
    0.3818    6.6230    0.9966 H   0  0  0  0  0  0  0  0  0  0  0  0
   -1.1484    7.8703   -0.4613 H   0  0  0  0  0  0  0  0  0  0  0  0
   -1.0018    6.6716   -1.7418 H   0  0  0  0  0  0  0  0  0  0  0  0
   -2.7362    4.1031    0.5090 H   0  0  0  0  0  0  0  0  0  0  0  0
  1  2  2  0  0  0  0
  2  3  1  0  0  0  0
  2 28  1  0  0  0  0
  3  4  1  0  0  0  0
  3 57  1  0  0  0  0
  3 58  1  0  0  0  0
  4  5  1  0  0  0  0
  4 27  1  0  0  0  0
  5  6  2  0  0  0  0
  5 59  1  0  0  0  0
  6  7  1  0  0  0  0
  6 22  1  0  0  0  0
  7  8  2  0  0  0  0
  7 20  1  0  0  0  0
  8  9  1  0  0  0  0
  8 17  1  0  0  0  0
  9 10  2  0  0  0  0
  9 15  1  0  0  0  0
 10 11  1  0  0  0  0
 10 60  1  0  0  0  0
 11 12  2  0  0  0  0
 11 61  1  0  0  0  0
 12 13  1  0  0  0  0
 12 14  1  0  0  0  0
 14 15  2  0  0  0  0
 14 62  1  0  0  0  0
 15 16  1  0  0  0  0
 17 18  2  0  0  0  0
 17 19  1  0  0  0  0
 19 20  1  0  0  0  0
 19 63  1  0  0  0  0
 20 21  2  0  0  0  0
 22 23  2  0  0  0  0
 22 27  1  0  0  0  0
 23 24  1  0  0  0  0
 23 64  1  0  0  0  0
 24 25  2  0  0  0  0
 24 65  1  0  0  0  0
 25 26  1  0  0  0  0
 25 66  1  0  0  0  0
 26 27  2  0  0  0  0
 26 67  1  0  0  0  0
 28 29  1  0  0  0  0
 28 68  1  0  0  0  0
 29 30  1  0  0  0  0
 29 69  1  0  0  0  0
 29 70  1  0  0  0  0
 30 31  1  0  0  0  0
 30 71  1  0  0  0  0
 30 72  1  0  0  0  0
 31 32  1  0  0  0  0
 32 33  1  0  0  0  0
 32 73  1  0  0  0  0
 32 74  1  0  0  0  0
 33 34  1  0  0  0  0
 33 75  1  0  0  0  0
 33 76  1  0  0  0  0
 34 35  1  0  0  0  0
 35 36  1  0  0  0  0
 35 77  1  0  0  0  0
 35 78  1  0  0  0  0
 36 37  1  0  0  0  0
 36 79  1  0  0  0  0
 36 80  1  0  0  0  0
 37 38  1  0  0  0  0
 37 81  1  0  0  0  0
 38 39  2  0  0  0  0
 38 43  1  0  0  0  0
 39 40  1  0  0  0  0
 39 82  1  0  0  0  0
 40 41  2  0  0  0  0
 40 83  1  0  0  0  0
 41 42  1  0  0  0  0
 41 84  1  0  0  0  0
 42 43  2  0  0  0  0
 42 55  1  0  0  0  0
 43 44  1  0  0  0  0
 44 45  2  0  0  0  0
 44 46  1  0  0  0  0
 46 47  1  0  0  0  0
 46 55  1  0  0  0  0
 47 48  1  0  0  0  0
 47 53  1  0  0  0  0
 47 85  1  0  0  0  0
 48 49  1  0  0  0  0
 48 86  1  0  0  0  0
 48 87  1  0  0  0  0
 49 50  1  0  0  0  0
 49 88  1  0  0  0  0
 49 89  1  0  0  0  0
 50 51  2  0  0  0  0
 50 52  1  0  0  0  0
 52 53  1  0  0  0  0
 52 90  1  0  0  0  0
 53 54  2  0  0  0  0
 55 56  2  0  0  0  0
M  END
$$$$
protac3895RUN2
  chem.cr 07102519423D
protac3895RUN2
 90 96  0  0  0  0  0  0  0  0999 V2000
   -4.0290   -3.5922    1.8419 O   0  0  0  0  0  0  0  0  0  0  0  0
   -3.1378   -2.9859    1.2665 C   0  0  0  0  0  0  0  0  0  0  0  0
   -1.8533   -2.5518    1.9414 C   0  0  0  0  0  0  0  0  0  0  0  0
   -1.9717   -1.2878    2.6976 N   0  0  0  0  0  0  0  0  0  0  0  0
   -2.9421   -1.1568    3.6967 C   0  0  0  0  0  0  0  0  0  0  0  0
   -2.5156   -0.3733    4.7123 C   0  0  0  0  0  0  0  0  0  0  0  0
   -3.1539   -0.1525    5.9121 C   0  0  0  0  0  0  0  0  0  0  0  0
   -4.4190   -0.5362    6.2305 C   0  0  0  0  0  0  0  0  0  0  0  0
   -5.3118   -1.2185    5.4256 C   0  0  0  0  0  0  0  0  0  0  0  0
   -5.4573   -2.6093    5.5972 C   0  0  0  0  0  0  0  0  0  0  0  0
   -6.3108   -3.3471    4.7595 C   0  0  0  0  0  0  0  0  0  0  0  0
   -7.0330   -2.6926    3.7500 C   0  0  0  0  0  0  0  0  0  0  0  0
   -8.0821   -3.6198    2.6868 Cl  0  0  0  0  0  0  0  0  0  0  0  0
   -6.9169   -1.3035    3.5862 C   0  0  0  0  0  0  0  0  0  0  0  0
   -6.0619   -0.5634    4.4236 C   0  0  0  0  0  0  0  0  0  0  0  0
   -5.9252    1.1770    4.1853 Cl  0  0  0  0  0  0  0  0  0  0  0  0
   -4.7400   -0.2181    7.4846 C   0  0  0  0  0  0  0  0  0  0  0  0
   -5.7360   -0.4057    8.1695 O   0  0  0  0  0  0  0  0  0  0  0  0
   -3.6613    0.4341    8.0493 N   0  0  0  0  0  0  0  0  0  0  0  0
   -2.6799    0.4045    7.0586 C   0  0  0  0  0  0  0  0  0  0  0  0
   -1.5790    0.7811    7.4373 O   0  0  0  0  0  0  0  0  0  0  0  0
   -1.2524    0.0979    4.2949 C   0  0  0  0  0  0  0  0  0  0  0  0
   -0.4117    1.1338    4.7637 C   0  0  0  0  0  0  0  0  0  0  0  0
    0.8047    1.4037    4.0962 C   0  0  0  0  0  0  0  0  0  0  0  0
    1.1604    0.7011    2.9257 C   0  0  0  0  0  0  0  0  0  0  0  0
    0.2767   -0.2478    2.3841 C   0  0  0  0  0  0  0  0  0  0  0  0
   -0.9105   -0.5148    3.0800 C   0  0  0  0  0  0  0  0  0  0  0  0
   -3.4759   -2.3929    0.0475 N   0  0  0  0  0  0  0  0  0  0  0  0
   -2.6592   -2.5921   -1.1596 C   0  0  0  0  0  0  0  0  0  0  0  0
   -3.2965   -1.9718   -2.4233 C   0  0  0  0  0  0  0  0  0  0  0  0
   -2.7965   -0.6429   -2.6299 O   0  0  0  0  0  0  0  0  0  0  0  0
   -3.1352    0.3488   -1.6486 C   0  0  0  0  0  0  0  0  0  0  0  0
   -2.6551    1.7122   -2.1940 C   0  0  0  0  0  0  0  0  0  0  0  0
   -1.2199    1.7486   -2.3131 O   0  0  0  0  0  0  0  0  0  0  0  0
   -0.4580    1.6672   -1.0983 C   0  0  0  0  0  0  0  0  0  0  0  0
    0.9001    2.3581   -1.3473 C   0  0  0  0  0  0  0  0  0  0  0  0
    1.8092    1.5614   -2.1933 N   0  0  0  0  0  0  0  0  0  0  0  0
    2.1224    1.8625   -3.5161 C   0  0  0  0  0  0  0  0  0  0  0  0
    1.2387    2.5569   -4.3760 C   0  0  0  0  0  0  0  0  0  0  0  0
    1.5973    2.8461   -5.7152 C   0  0  0  0  0  0  0  0  0  0  0  0
    2.8508    2.4504   -6.2250 C   0  0  0  0  0  0  0  0  0  0  0  0
    3.7198    1.7636   -5.3683 C   0  0  0  0  0  0  0  0  0  0  0  0
    3.3616    1.4739   -4.0499 C   0  0  0  0  0  0  0  0  0  0  0  0
    4.4282    0.8423   -3.4522 C   0  0  0  0  0  0  0  0  0  0  0  0
    4.6161    0.6489   -2.2563 O   0  0  0  0  0  0  0  0  0  0  0  0
    5.4720    0.7732   -4.3796 N   0  0  0  0  0  0  0  0  0  0  0  0
    6.8387    0.2879   -4.0993 C   0  0  0  0  0  0  0  0  0  0  0  0
    7.8164    1.4720   -3.9467 C   0  0  0  0  0  0  0  0  0  0  0  0
    9.2390    0.9381   -3.6812 C   0  0  0  0  0  0  0  0  0  0  0  0
    9.6708   -0.0525   -4.7389 C   0  0  0  0  0  0  0  0  0  0  0  0
   10.8406   -0.2666   -5.0197 O   0  0  0  0  0  0  0  0  0  0  0  0
    8.7147   -0.9144   -5.2885 N   0  0  0  0  0  0  0  0  0  0  0  0
    7.3331   -0.7218   -5.1320 C   0  0  0  0  0  0  0  0  0  0  0  0
    6.6168   -1.5571   -5.6659 O   0  0  0  0  0  0  0  0  0  0  0  0
    5.0003    1.3071   -5.5868 C   0  0  0  0  0  0  0  0  0  0  0  0
    5.7523    1.6159   -6.5046 O   0  0  0  0  0  0  0  0  0  0  0  0
   -1.5503   -3.3366    2.6448 H   0  0  0  0  0  0  0  0  0  0  0  0
   -1.0599   -2.4526    1.1967 H   0  0  0  0  0  0  0  0  0  0  0  0
   -3.8389   -1.7581    3.6011 H   0  0  0  0  0  0  0  0  0  0  0  0
   -4.8954   -3.1169    6.3758 H   0  0  0  0  0  0  0  0  0  0  0  0
   -6.4079   -4.4222    4.8869 H   0  0  0  0  0  0  0  0  0  0  0  0
   -7.4888   -0.8016    2.8119 H   0  0  0  0  0  0  0  0  0  0  0  0
   -3.4626    0.4411    9.0371 H   0  0  0  0  0  0  0  0  0  0  0  0
   -0.6839    1.7762    5.5884 H   0  0  0  0  0  0  0  0  0  0  0  0
    1.4668    2.1730    4.4825 H   0  0  0  0  0  0  0  0  0  0  0  0
    2.0979    0.9218    2.4204 H   0  0  0  0  0  0  0  0  0  0  0  0
    0.5035   -0.7418    1.4451 H   0  0  0  0  0  0  0  0  0  0  0  0
   -4.4650   -2.2198   -0.0855 H   0  0  0  0  0  0  0  0  0  0  0  0
   -2.5506   -3.6726   -1.3254 H   0  0  0  0  0  0  0  0  0  0  0  0
   -1.6522   -2.1736   -1.0181 H   0  0  0  0  0  0  0  0  0  0  0  0
   -4.3915   -1.9872   -2.3624 H   0  0  0  0  0  0  0  0  0  0  0  0
   -3.0124   -2.5820   -3.2891 H   0  0  0  0  0  0  0  0  0  0  0  0
   -2.6709    0.1389   -0.6779 H   0  0  0  0  0  0  0  0  0  0  0  0
   -4.2221    0.3906   -1.5057 H   0  0  0  0  0  0  0  0  0  0  0  0
   -3.0026    2.5192   -1.5394 H   0  0  0  0  0  0  0  0  0  0  0  0
   -3.1096    1.8711   -3.1805 H   0  0  0  0  0  0  0  0  0  0  0  0
   -0.9711    2.2006   -0.2891 H   0  0  0  0  0  0  0  0  0  0  0  0
   -0.3102    0.6236   -0.7902 H   0  0  0  0  0  0  0  0  0  0  0  0
    0.7218    3.3445   -1.7966 H   0  0  0  0  0  0  0  0  0  0  0  0
    1.3812    2.5319   -0.3764 H   0  0  0  0  0  0  0  0  0  0  0  0
    2.5057    0.9943   -1.7204 H   0  0  0  0  0  0  0  0  0  0  0  0
    0.2639    2.8682   -4.0186 H   0  0  0  0  0  0  0  0  0  0  0  0
    0.8996    3.3782   -6.3558 H   0  0  0  0  0  0  0  0  0  0  0  0
    3.1405    2.6737   -7.2484 H   0  0  0  0  0  0  0  0  0  0  0  0
    6.8050   -0.2482   -3.1420 H   0  0  0  0  0  0  0  0  0  0  0  0
    7.4895    2.1301   -3.1312 H   0  0  0  0  0  0  0  0  0  0  0  0
    7.8166    2.0709   -4.8686 H   0  0  0  0  0  0  0  0  0  0  0  0
    9.9544    1.7692   -3.6478 H   0  0  0  0  0  0  0  0  0  0  0  0
    9.2843    0.4483   -2.7003 H   0  0  0  0  0  0  0  0  0  0  0  0
    9.0252   -1.6369   -5.9202 H   0  0  0  0  0  0  0  0  0  0  0  0
  1  2  2  0  0  0  0
  2  3  1  0  0  0  0
  2 28  1  0  0  0  0
  3  4  1  0  0  0  0
  3 57  1  0  0  0  0
  3 58  1  0  0  0  0
  4  5  1  0  0  0  0
  4 27  1  0  0  0  0
  5  6  2  0  0  0  0
  5 59  1  0  0  0  0
  6  7  1  0  0  0  0
  6 22  1  0  0  0  0
  7  8  2  0  0  0  0
  7 20  1  0  0  0  0
  8  9  1  0  0  0  0
  8 17  1  0  0  0  0
  9 10  2  0  0  0  0
  9 15  1  0  0  0  0
 10 11  1  0  0  0  0
 10 60  1  0  0  0  0
 11 12  2  0  0  0  0
 11 61  1  0  0  0  0
 12 13  1  0  0  0  0
 12 14  1  0  0  0  0
 14 15  2  0  0  0  0
 14 62  1  0  0  0  0
 15 16  1  0  0  0  0
 17 18  2  0  0  0  0
 17 19  1  0  0  0  0
 19 20  1  0  0  0  0
 19 63  1  0  0  0  0
 20 21  2  0  0  0  0
 22 23  2  0  0  0  0
 22 27  1  0  0  0  0
 23 24  1  0  0  0  0
 23 64  1  0  0  0  0
 24 25  2  0  0  0  0
 24 65  1  0  0  0  0
 25 26  1  0  0  0  0
 25 66  1  0  0  0  0
 26 27  2  0  0  0  0
 26 67  1  0  0  0  0
 28 29  1  0  0  0  0
 28 68  1  0  0  0  0
 29 30  1  0  0  0  0
 29 69  1  0  0  0  0
 29 70  1  0  0  0  0
 30 31  1  0  0  0  0
 30 71  1  0  0  0  0
 30 72  1  0  0  0  0
 31 32  1  0  0  0  0
 32 33  1  0  0  0  0
 32 73  1  0  0  0  0
 32 74  1  0  0  0  0
 33 34  1  0  0  0  0
 33 75  1  0  0  0  0
 33 76  1  0  0  0  0
 34 35  1  0  0  0  0
 35 36  1  0  0  0  0
 35 77  1  0  0  0  0
 35 78  1  0  0  0  0
 36 37  1  0  0  0  0
 36 79  1  0  0  0  0
 36 80  1  0  0  0  0
 37 38  1  0  0  0  0
 37 81  1  0  0  0  0
 38 39  2  0  0  0  0
 38 43  1  0  0  0  0
 39 40  1  0  0  0  0
 39 82  1  0  0  0  0
 40 41  2  0  0  0  0
 40 83  1  0  0  0  0
 41 42  1  0  0  0  0
 41 84  1  0  0  0  0
 42 43  2  0  0  0  0
 42 55  1  0  0  0  0
 43 44  1  0  0  0  0
 44 45  2  0  0  0  0
 44 46  1  0  0  0  0
 46 47  1  0  0  0  0
 46 55  1  0  0  0  0
 47 48  1  0  0  0  0
 47 53  1  0  0  0  0
 47 85  1  0  0  0  0
 48 49  1  0  0  0  0
 48 86  1  0  0  0  0
 48 87  1  0  0  0  0
 49 50  1  0  0  0  0
 49 88  1  0  0  0  0
 49 89  1  0  0  0  0
 50 51  2  0  0  0  0
 50 52  1  0  0  0  0
 52 53  1  0  0  0  0
 52 90  1  0  0  0  0
 53 54  2  0  0  0  0
 55 56  2  0  0  0  0
M  END
$$$$
protac3895RUN2
  chem.cr 07102519423D
protac3895RUN2
 90 96  0  0  0  0  0  0  0  0999 V2000
   -2.6653    1.5939   -2.3466 O   0  0  0  0  0  0  0  0  0  0  0  0
   -2.5717    0.9327   -1.3231 C   0  0  0  0  0  0  0  0  0  0  0  0
   -1.7555   -0.3421   -1.2458 C   0  0  0  0  0  0  0  0  0  0  0  0
   -2.5446   -1.5937   -1.2719 N   0  0  0  0  0  0  0  0  0  0  0  0
   -2.0105   -2.7061   -0.5951 C   0  0  0  0  0  0  0  0  0  0  0  0
   -2.0373   -3.8148   -1.3686 C   0  0  0  0  0  0  0  0  0  0  0  0
   -1.4157   -5.0117   -1.1353 C   0  0  0  0  0  0  0  0  0  0  0  0
   -0.8774   -5.4257    0.0349 C   0  0  0  0  0  0  0  0  0  0  0  0
   -0.9374   -4.7743    1.2515 C   0  0  0  0  0  0  0  0  0  0  0  0
   -2.0970   -4.9137    2.0365 C   0  0  0  0  0  0  0  0  0  0  0  0
   -2.1751   -4.3039    3.2989 C   0  0  0  0  0  0  0  0  0  0  0  0
   -1.0931   -3.5522    3.7817 C   0  0  0  0  0  0  0  0  0  0  0  0
   -1.1865   -2.8062    5.3697 Cl  0  0  0  0  0  0  0  0  0  0  0  0
    0.0668   -3.4025    3.0007 C   0  0  0  0  0  0  0  0  0  0  0  0
    0.1483   -4.0150    1.7385 C   0  0  0  0  0  0  0  0  0  0  0  0
    1.6078   -3.8039    0.7692 Cl  0  0  0  0  0  0  0  0  0  0  0  0
   -0.2929   -6.6196   -0.0774 C   0  0  0  0  0  0  0  0  0  0  0  0
    0.2963   -7.3470    0.7112 O   0  0  0  0  0  0  0  0  0  0  0  0
   -0.4594   -7.0574   -1.3789 N   0  0  0  0  0  0  0  0  0  0  0  0
   -1.1284   -6.0109   -2.0110 C   0  0  0  0  0  0  0  0  0  0  0  0
   -1.2341   -6.1393   -3.2224 O   0  0  0  0  0  0  0  0  0  0  0  0
   -2.7617   -3.4455   -2.5107 C   0  0  0  0  0  0  0  0  0  0  0  0
   -3.4004   -4.2215   -3.5039 C   0  0  0  0  0  0  0  0  0  0  0  0
   -4.1676   -3.5778   -4.4977 C   0  0  0  0  0  0  0  0  0  0  0  0
   -4.3645   -2.1812   -4.4669 C   0  0  0  0  0  0  0  0  0  0  0  0
   -3.8257   -1.4209   -3.4154 C   0  0  0  0  0  0  0  0  0  0  0  0
   -3.0437   -2.0796   -2.4546 C   0  0  0  0  0  0  0  0  0  0  0  0
   -2.8501    1.6317   -0.1424 N   0  0  0  0  0  0  0  0  0  0  0  0
   -2.8675    1.0613    1.2099 C   0  0  0  0  0  0  0  0  0  0  0  0
   -3.4495    2.0692    2.2229 C   0  0  0  0  0  0  0  0  0  0  0  0
   -2.6916    3.2811    2.1136 O   0  0  0  0  0  0  0  0  0  0  0  0
   -3.0385    4.3136    3.0460 C   0  0  0  0  0  0  0  0  0  0  0  0
   -2.1245    5.5384    2.8047 C   0  0  0  0  0  0  0  0  0  0  0  0
   -0.8234    5.2921    3.3717 O   0  0  0  0  0  0  0  0  0  0  0  0
    0.0942    4.5631    2.5419 C   0  0  0  0  0  0  0  0  0  0  0  0
    1.3580    4.2943    3.3714 C   0  0  0  0  0  0  0  0  0  0  0  0
    2.3380    3.5729    2.5442 N   0  0  0  0  0  0  0  0  0  0  0  0
    3.2113    4.1593    1.6326 C   0  0  0  0  0  0  0  0  0  0  0  0
    3.5859    5.5249    1.6782 C   0  0  0  0  0  0  0  0  0  0  0  0
    4.4923    6.0663    0.7352 C   0  0  0  0  0  0  0  0  0  0  0  0
    5.0425    5.2562   -0.2764 C   0  0  0  0  0  0  0  0  0  0  0  0
    4.6657    3.9092   -0.3128 C   0  0  0  0  0  0  0  0  0  0  0  0
    3.7683    3.3742    0.6121 C   0  0  0  0  0  0  0  0  0  0  0  0
    3.5502    2.0504    0.2889 C   0  0  0  0  0  0  0  0  0  0  0  0
    2.5613    1.3835    0.5738 O   0  0  0  0  0  0  0  0  0  0  0  0
    4.3117    1.7659   -0.8554 N   0  0  0  0  0  0  0  0  0  0  0  0
    4.2537    0.5410   -1.6779 C   0  0  0  0  0  0  0  0  0  0  0  0
    3.0708    0.6256   -2.6617 C   0  0  0  0  0  0  0  0  0  0  0  0
    3.0115   -0.6561   -3.5186 C   0  0  0  0  0  0  0  0  0  0  0  0
    3.0043   -1.9068   -2.6673 C   0  0  0  0  0  0  0  0  0  0  0  0
    2.5777   -2.9815   -3.0599 O   0  0  0  0  0  0  0  0  0  0  0  0
    3.7043   -1.9093   -1.4549 N   0  0  0  0  0  0  0  0  0  0  0  0
    4.2122   -0.7446   -0.8574 C   0  0  0  0  0  0  0  0  0  0  0  0
    4.8546   -0.9159    0.1701 O   0  0  0  0  0  0  0  0  0  0  0  0
    5.0221    2.9201   -1.1976 C   0  0  0  0  0  0  0  0  0  0  0  0
    5.5661    3.0483   -2.2882 O   0  0  0  0  0  0  0  0  0  0  0  0
   -1.0861   -0.3603   -2.1139 H   0  0  0  0  0  0  0  0  0  0  0  0
   -1.1150   -0.3253   -0.3585 H   0  0  0  0  0  0  0  0  0  0  0  0
   -1.5144   -2.5338    0.3528 H   0  0  0  0  0  0  0  0  0  0  0  0
   -2.9275   -5.5086    1.6681 H   0  0  0  0  0  0  0  0  0  0  0  0
   -3.0680   -4.4290    3.9061 H   0  0  0  0  0  0  0  0  0  0  0  0
    0.9058   -2.8246    3.3776 H   0  0  0  0  0  0  0  0  0  0  0  0
    0.2056   -7.6448   -1.8568 H   0  0  0  0  0  0  0  0  0  0  0  0
   -3.3700   -5.3025   -3.4976 H   0  0  0  0  0  0  0  0  0  0  0  0
   -4.6401   -4.1705   -5.2768 H   0  0  0  0  0  0  0  0  0  0  0  0
   -4.9756   -1.7030   -5.2269 H   0  0  0  0  0  0  0  0  0  0  0  0
   -4.0391   -0.3594   -3.3385 H   0  0  0  0  0  0  0  0  0  0  0  0
   -3.0635    2.6179   -0.2403 H   0  0  0  0  0  0  0  0  0  0  0  0
   -1.8428    0.8024    1.5089 H   0  0  0  0  0  0  0  0  0  0  0  0
   -3.4734    0.1448    1.2106 H   0  0  0  0  0  0  0  0  0  0  0  0
   -3.3795    1.6554    3.2375 H   0  0  0  0  0  0  0  0  0  0  0  0
   -4.5055    2.2562    1.9906 H   0  0  0  0  0  0  0  0  0  0  0  0
   -2.9107    3.9705    4.0813 H   0  0  0  0  0  0  0  0  0  0  0  0
   -4.0858    4.6147    2.9063 H   0  0  0  0  0  0  0  0  0  0  0  0
   -2.5737    6.4065    3.3006 H   0  0  0  0  0  0  0  0  0  0  0  0
   -2.0625    5.7693    1.7310 H   0  0  0  0  0  0  0  0  0  0  0  0
   -0.3225    3.6040    2.2137 H   0  0  0  0  0  0  0  0  0  0  0  0
    0.3551    5.1457    1.6478 H   0  0  0  0  0  0  0  0  0  0  0  0
    1.7658    5.2399    3.7434 H   0  0  0  0  0  0  0  0  0  0  0  0
    1.0924    3.6855    4.2465 H   0  0  0  0  0  0  0  0  0  0  0  0
    2.1857    2.5794    2.4026 H   0  0  0  0  0  0  0  0  0  0  0  0
    3.1867    6.1789    2.4461 H   0  0  0  0  0  0  0  0  0  0  0  0
    4.7669    7.1165    0.7920 H   0  0  0  0  0  0  0  0  0  0  0  0
    5.7343    5.6592   -1.0109 H   0  0  0  0  0  0  0  0  0  0  0  0
    5.1834    0.4977   -2.2605 H   0  0  0  0  0  0  0  0  0  0  0  0
    3.1704    1.5133   -3.2973 H   0  0  0  0  0  0  0  0  0  0  0  0
    2.1362    0.7359   -2.0958 H   0  0  0  0  0  0  0  0  0  0  0  0
    2.1138   -0.6453   -4.1520 H   0  0  0  0  0  0  0  0  0  0  0  0
    3.8712   -0.6983   -4.1989 H   0  0  0  0  0  0  0  0  0  0  0  0
    3.7952   -2.7797   -0.9544 H   0  0  0  0  0  0  0  0  0  0  0  0
  1  2  2  0  0  0  0
  2  3  1  0  0  0  0
  2 28  1  0  0  0  0
  3  4  1  0  0  0  0
  3 57  1  0  0  0  0
  3 58  1  0  0  0  0
  4  5  1  0  0  0  0
  4 27  1  0  0  0  0
  5  6  2  0  0  0  0
  5 59  1  0  0  0  0
  6  7  1  0  0  0  0
  6 22  1  0  0  0  0
  7  8  2  0  0  0  0
  7 20  1  0  0  0  0
  8  9  1  0  0  0  0
  8 17  1  0  0  0  0
  9 10  2  0  0  0  0
  9 15  1  0  0  0  0
 10 11  1  0  0  0  0
 10 60  1  0  0  0  0
 11 12  2  0  0  0  0
 11 61  1  0  0  0  0
 12 13  1  0  0  0  0
 12 14  1  0  0  0  0
 14 15  2  0  0  0  0
 14 62  1  0  0  0  0
 15 16  1  0  0  0  0
 17 18  2  0  0  0  0
 17 19  1  0  0  0  0
 19 20  1  0  0  0  0
 19 63  1  0  0  0  0
 20 21  2  0  0  0  0
 22 23  2  0  0  0  0
 22 27  1  0  0  0  0
 23 24  1  0  0  0  0
 23 64  1  0  0  0  0
 24 25  2  0  0  0  0
 24 65  1  0  0  0  0
 25 26  1  0  0  0  0
 25 66  1  0  0  0  0
 26 27  2  0  0  0  0
 26 67  1  0  0  0  0
 28 29  1  0  0  0  0
 28 68  1  0  0  0  0
 29 30  1  0  0  0  0
 29 69  1  0  0  0  0
 29 70  1  0  0  0  0
 30 31  1  0  0  0  0
 30 71  1  0  0  0  0
 30 72  1  0  0  0  0
 31 32  1  0  0  0  0
 32 33  1  0  0  0  0
 32 73  1  0  0  0  0
 32 74  1  0  0  0  0
 33 34  1  0  0  0  0
 33 75  1  0  0  0  0
 33 76  1  0  0  0  0
 34 35  1  0  0  0  0
 35 36  1  0  0  0  0
 35 77  1  0  0  0  0
 35 78  1  0  0  0  0
 36 37  1  0  0  0  0
 36 79  1  0  0  0  0
 36 80  1  0  0  0  0
 37 38  1  0  0  0  0
 37 81  1  0  0  0  0
 38 39  2  0  0  0  0
 38 43  1  0  0  0  0
 39 40  1  0  0  0  0
 39 82  1  0  0  0  0
 40 41  2  0  0  0  0
 40 83  1  0  0  0  0
 41 42  1  0  0  0  0
 41 84  1  0  0  0  0
 42 43  2  0  0  0  0
 42 55  1  0  0  0  0
 43 44  1  0  0  0  0
 44 45  2  0  0  0  0
 44 46  1  0  0  0  0
 46 47  1  0  0  0  0
 46 55  1  0  0  0  0
 47 48  1  0  0  0  0
 47 53  1  0  0  0  0
 47 85  1  0  0  0  0
 48 49  1  0  0  0  0
 48 86  1  0  0  0  0
 48 87  1  0  0  0  0
 49 50  1  0  0  0  0
 49 88  1  0  0  0  0
 49 89  1  0  0  0  0
 50 51  2  0  0  0  0
 50 52  1  0  0  0  0
 52 53  1  0  0  0  0
 52 90  1  0  0  0  0
 53 54  2  0  0  0  0
 55 56  2  0  0  0  0
M  END
$$$$
protac3895RUN2
  chem.cr 07102519423D
protac3895RUN2
 90 96  0  0  0  0  0  0  0  0999 V2000
   -1.6887    2.0279   -1.2823 O   0  0  0  0  0  0  0  0  0  0  0  0
   -1.2193    1.0011   -0.8146 C   0  0  0  0  0  0  0  0  0  0  0  0
   -0.5193   -0.0168   -1.6698 C   0  0  0  0  0  0  0  0  0  0  0  0
   -1.1731   -1.3285   -1.6568 N   0  0  0  0  0  0  0  0  0  0  0  0
   -0.8455   -2.3532   -0.7735 C   0  0  0  0  0  0  0  0  0  0  0  0
   -1.7136   -3.3839   -0.8998 C   0  0  0  0  0  0  0  0  0  0  0  0
   -1.6193   -4.6204   -0.3143 C   0  0  0  0  0  0  0  0  0  0  0  0
   -0.8080   -4.9573    0.7200 C   0  0  0  0  0  0  0  0  0  0  0  0
   -0.0098   -4.0975    1.4494 C   0  0  0  0  0  0  0  0  0  0  0  0
   -0.5863   -3.3696    2.5076 C   0  0  0  0  0  0  0  0  0  0  0  0
    0.1832   -2.4467    3.2367 C   0  0  0  0  0  0  0  0  0  0  0  0
    1.5331   -2.2489    2.9084 C   0  0  0  0  0  0  0  0  0  0  0  0
    2.4810   -1.0445    3.7698 Cl  0  0  0  0  0  0  0  0  0  0  0  0
    2.1238   -2.9969    1.8774 C   0  0  0  0  0  0  0  0  0  0  0  0
    1.3586   -3.9272    1.1522 C   0  0  0  0  0  0  0  0  0  0  0  0
    2.1069   -4.8032   -0.1794 Cl  0  0  0  0  0  0  0  0  0  0  0  0
   -0.9216   -6.2445    1.0560 C   0  0  0  0  0  0  0  0  0  0  0  0
   -0.4309   -6.9376    1.9345 O   0  0  0  0  0  0  0  0  0  0  0  0
   -1.8371   -6.8142    0.1931 N   0  0  0  0  0  0  0  0  0  0  0  0
   -2.2610   -5.7769   -0.6340 C   0  0  0  0  0  0  0  0  0  0  0  0
   -3.0333   -6.1167   -1.5180 O   0  0  0  0  0  0  0  0  0  0  0  0
   -2.6865   -2.9301   -1.8182 C   0  0  0  0  0  0  0  0  0  0  0  0
   -3.9773   -3.4026   -2.1446 C   0  0  0  0  0  0  0  0  0  0  0  0
   -4.7844   -2.6657   -3.0415 C   0  0  0  0  0  0  0  0  0  0  0  0
   -4.3511   -1.4286   -3.5619 C   0  0  0  0  0  0  0  0  0  0  0  0
   -3.1142   -0.8969   -3.1593 C   0  0  0  0  0  0  0  0  0  0  0  0
   -2.3257   -1.6659   -2.2962 C   0  0  0  0  0  0  0  0  0  0  0  0
   -0.7039    1.1160    0.4742 N   0  0  0  0  0  0  0  0  0  0  0  0
   -1.2048    0.3051    1.5840 C   0  0  0  0  0  0  0  0  0  0  0  0
   -2.2386    1.1171    2.3822 C   0  0  0  0  0  0  0  0  0  0  0  0
   -1.6567    2.4081    2.6586 O   0  0  0  0  0  0  0  0  0  0  0  0
   -2.5725    3.4377    3.0596 C   0  0  0  0  0  0  0  0  0  0  0  0
   -3.4037    3.9196    1.8389 C   0  0  0  0  0  0  0  0  0  0  0  0
   -2.9280    5.1997    1.3711 O   0  0  0  0  0  0  0  0  0  0  0  0
   -1.9846    5.1969    0.2813 C   0  0  0  0  0  0  0  0  0  0  0  0
   -0.5457    5.2554    0.8353 C   0  0  0  0  0  0  0  0  0  0  0  0
    0.2231    4.0410    0.5080 N   0  0  0  0  0  0  0  0  0  0  0  0
    1.2875    3.5455    1.2600 C   0  0  0  0  0  0  0  0  0  0  0  0
    1.4224    3.7898    2.6501 C   0  0  0  0  0  0  0  0  0  0  0  0
    2.5234    3.2827    3.3825 C   0  0  0  0  0  0  0  0  0  0  0  0
    3.5216    2.5247    2.7423 C   0  0  0  0  0  0  0  0  0  0  0  0
    3.3746    2.2747    1.3744 C   0  0  0  0  0  0  0  0  0  0  0  0
    2.2803    2.7564    0.6524 C   0  0  0  0  0  0  0  0  0  0  0  0
    2.4179    2.3208   -0.6457 C   0  0  0  0  0  0  0  0  0  0  0  0
    1.6024    2.4040   -1.5564 O   0  0  0  0  0  0  0  0  0  0  0  0
    3.6078    1.5779   -0.7571 N   0  0  0  0  0  0  0  0  0  0  0  0
    3.9586    0.5911   -1.8049 C   0  0  0  0  0  0  0  0  0  0  0  0
    3.9046    1.1814   -3.2323 C   0  0  0  0  0  0  0  0  0  0  0  0
    4.3336    0.0998   -4.2500 C   0  0  0  0  0  0  0  0  0  0  0  0
    3.5424   -1.1801   -4.0842 C   0  0  0  0  0  0  0  0  0  0  0  0
    3.3946   -1.9959   -4.9812 O   0  0  0  0  0  0  0  0  0  0  0  0
    3.1268   -1.5655   -2.8027 N   0  0  0  0  0  0  0  0  0  0  0  0
    3.1453   -0.6969   -1.7015 C   0  0  0  0  0  0  0  0  0  0  0  0
    2.7122   -1.1561   -0.6528 O   0  0  0  0  0  0  0  0  0  0  0  0
    4.1808    1.5638    0.5195 C   0  0  0  0  0  0  0  0  0  0  0  0
    5.2566    1.0252    0.7561 O   0  0  0  0  0  0  0  0  0  0  0  0
   -0.4797    0.3512   -2.7011 H   0  0  0  0  0  0  0  0  0  0  0  0
    0.5130   -0.1274   -1.3224 H   0  0  0  0  0  0  0  0  0  0  0  0
    0.0758   -2.2591   -0.2099 H   0  0  0  0  0  0  0  0  0  0  0  0
   -1.6363   -3.5141    2.7525 H   0  0  0  0  0  0  0  0  0  0  0  0
   -0.2690   -1.8795    4.0470 H   0  0  0  0  0  0  0  0  0  0  0  0
    3.1688   -2.8442    1.6248 H   0  0  0  0  0  0  0  0  0  0  0  0
   -2.2618   -7.7245    0.2802 H   0  0  0  0  0  0  0  0  0  0  0  0
   -4.4031   -4.2841   -1.6917 H   0  0  0  0  0  0  0  0  0  0  0  0
   -5.7657   -3.0430   -3.3105 H   0  0  0  0  0  0  0  0  0  0  0  0
   -4.9911   -0.8624   -4.2339 H   0  0  0  0  0  0  0  0  0  0  0  0
   -2.7936    0.0883   -3.4860 H   0  0  0  0  0  0  0  0  0  0  0  0
   -0.4315    2.0563    0.7374 H   0  0  0  0  0  0  0  0  0  0  0  0
   -0.3607    0.0382    2.2318 H   0  0  0  0  0  0  0  0  0  0  0  0
   -1.6597   -0.6201    1.2053 H   0  0  0  0  0  0  0  0  0  0  0  0
   -2.5009    0.5976    3.3141 H   0  0  0  0  0  0  0  0  0  0  0  0
   -3.1475    1.2092    1.7734 H   0  0  0  0  0  0  0  0  0  0  0  0
   -2.0296    4.2879    3.4907 H   0  0  0  0  0  0  0  0  0  0  0  0
   -3.2518    3.0557    3.8327 H   0  0  0  0  0  0  0  0  0  0  0  0
   -4.4459    4.0273    2.1665 H   0  0  0  0  0  0  0  0  0  0  0  0
   -3.3988    3.1792    1.0275 H   0  0  0  0  0  0  0  0  0  0  0  0
   -2.1280    4.3323   -0.3789 H   0  0  0  0  0  0  0  0  0  0  0  0
   -2.1538    6.0920   -0.3310 H   0  0  0  0  0  0  0  0  0  0  0  0
   -0.0398    6.1172    0.3792 H   0  0  0  0  0  0  0  0  0  0  0  0
   -0.5906    5.4404    1.9139 H   0  0  0  0  0  0  0  0  0  0  0  0
    0.1429    3.6785   -0.4396 H   0  0  0  0  0  0  0  0  0  0  0  0
    0.6678    4.3523    3.1864 H   0  0  0  0  0  0  0  0  0  0  0  0
    2.5983    3.4794    4.4488 H   0  0  0  0  0  0  0  0  0  0  0  0
    4.3770    2.1354    3.2903 H   0  0  0  0  0  0  0  0  0  0  0  0
    5.0012    0.2996   -1.6250 H   0  0  0  0  0  0  0  0  0  0  0  0
    4.5483    2.0697   -3.3028 H   0  0  0  0  0  0  0  0  0  0  0  0
    2.8822    1.5029   -3.4720 H   0  0  0  0  0  0  0  0  0  0  0  0
    4.2064    0.4750   -5.2736 H   0  0  0  0  0  0  0  0  0  0  0  0
    5.4006   -0.1313   -4.1325 H   0  0  0  0  0  0  0  0  0  0  0  0
    2.6974   -2.4731   -2.6944 H   0  0  0  0  0  0  0  0  0  0  0  0
  1  2  2  0  0  0  0
  2  3  1  0  0  0  0
  2 28  1  0  0  0  0
  3  4  1  0  0  0  0
  3 57  1  0  0  0  0
  3 58  1  0  0  0  0
  4  5  1  0  0  0  0
  4 27  1  0  0  0  0
  5  6  2  0  0  0  0
  5 59  1  0  0  0  0
  6  7  1  0  0  0  0
  6 22  1  0  0  0  0
  7  8  2  0  0  0  0
  7 20  1  0  0  0  0
  8  9  1  0  0  0  0
  8 17  1  0  0  0  0
  9 10  2  0  0  0  0
  9 15  1  0  0  0  0
 10 11  1  0  0  0  0
 10 60  1  0  0  0  0
 11 12  2  0  0  0  0
 11 61  1  0  0  0  0
 12 13  1  0  0  0  0
 12 14  1  0  0  0  0
 14 15  2  0  0  0  0
 14 62  1  0  0  0  0
 15 16  1  0  0  0  0
 17 18  2  0  0  0  0
 17 19  1  0  0  0  0
 19 20  1  0  0  0  0
 19 63  1  0  0  0  0
 20 21  2  0  0  0  0
 22 23  2  0  0  0  0
 22 27  1  0  0  0  0
 23 24  1  0  0  0  0
 23 64  1  0  0  0  0
 24 25  2  0  0  0  0
 24 65  1  0  0  0  0
 25 26  1  0  0  0  0
 25 66  1  0  0  0  0
 26 27  2  0  0  0  0
 26 67  1  0  0  0  0
 28 29  1  0  0  0  0
 28 68  1  0  0  0  0
 29 30  1  0  0  0  0
 29 69  1  0  0  0  0
 29 70  1  0  0  0  0
 30 31  1  0  0  0  0
 30 71  1  0  0  0  0
 30 72  1  0  0  0  0
 31 32  1  0  0  0  0
 32 33  1  0  0  0  0
 32 73  1  0  0  0  0
 32 74  1  0  0  0  0
 33 34  1  0  0  0  0
 33 75  1  0  0  0  0
 33 76  1  0  0  0  0
 34 35  1  0  0  0  0
 35 36  1  0  0  0  0
 35 77  1  0  0  0  0
 35 78  1  0  0  0  0
 36 37  1  0  0  0  0
 36 79  1  0  0  0  0
 36 80  1  0  0  0  0
 37 38  1  0  0  0  0
 37 81  1  0  0  0  0
 38 39  2  0  0  0  0
 38 43  1  0  0  0  0
 39 40  1  0  0  0  0
 39 82  1  0  0  0  0
 40 41  2  0  0  0  0
 40 83  1  0  0  0  0
 41 42  1  0  0  0  0
 41 84  1  0  0  0  0
 42 43  2  0  0  0  0
 42 55  1  0  0  0  0
 43 44  1  0  0  0  0
 44 45  2  0  0  0  0
 44 46  1  0  0  0  0
 46 47  1  0  0  0  0
 46 55  1  0  0  0  0
 47 48  1  0  0  0  0
 47 53  1  0  0  0  0
 47 85  1  0  0  0  0
 48 49  1  0  0  0  0
 48 86  1  0  0  0  0
 48 87  1  0  0  0  0
 49 50  1  0  0  0  0
 49 88  1  0  0  0  0
 49 89  1  0  0  0  0
 50 51  2  0  0  0  0
 50 52  1  0  0  0  0
 52 53  1  0  0  0  0
 52 90  1  0  0  0  0
 53 54  2  0  0  0  0
 55 56  2  0  0  0  0
M  END
$$$$
protac3895RUN2
  chem.cr 07102519423D
protac3895RUN2
 90 96  0  0  0  0  0  0  0  0999 V2000
   -4.3731   -0.6280   -0.8070 O   0  0  0  0  0  0  0  0  0  0  0  0
   -3.7457   -1.1135    0.1257 C   0  0  0  0  0  0  0  0  0  0  0  0
   -2.9352   -2.3827    0.0010 C   0  0  0  0  0  0  0  0  0  0  0  0
   -3.5544   -3.5514    0.6596 N   0  0  0  0  0  0  0  0  0  0  0  0
   -2.8529   -4.3744    1.5509 C   0  0  0  0  0  0  0  0  0  0  0  0
   -3.3574   -5.6335    1.5516 C   0  0  0  0  0  0  0  0  0  0  0  0
   -2.8421   -6.7472    2.1704 C   0  0  0  0  0  0  0  0  0  0  0  0
   -1.8188   -6.7735    3.0589 C   0  0  0  0  0  0  0  0  0  0  0  0
   -1.1047   -5.6952    3.5352 C   0  0  0  0  0  0  0  0  0  0  0  0
   -1.5755   -4.9953    4.6628 C   0  0  0  0  0  0  0  0  0  0  0  0
   -0.8432   -3.9120    5.1772 C   0  0  0  0  0  0  0  0  0  0  0  0
    0.3622   -3.5290    4.5696 C   0  0  0  0  0  0  0  0  0  0  0  0
    1.2882   -2.1884    5.2251 Cl  0  0  0  0  0  0  0  0  0  0  0  0
    0.8412   -4.2255    3.4478 C   0  0  0  0  0  0  0  0  0  0  0  0
    0.1106   -5.3084    2.9306 C   0  0  0  0  0  0  0  0  0  0  0  0
    0.7256   -6.1620    1.5156 Cl  0  0  0  0  0  0  0  0  0  0  0  0
   -1.5261   -8.0126    3.4542 C   0  0  0  0  0  0  0  0  0  0  0  0
   -0.6823   -8.4762    4.2104 O   0  0  0  0  0  0  0  0  0  0  0  0
   -2.3955   -8.8782    2.8270 N   0  0  0  0  0  0  0  0  0  0  0  0
   -3.1618   -8.0599    1.9983 C   0  0  0  0  0  0  0  0  0  0  0  0
   -3.8870   -8.6761    1.2318 O   0  0  0  0  0  0  0  0  0  0  0  0
   -4.4865   -5.5681    0.7123 C   0  0  0  0  0  0  0  0  0  0  0  0
   -5.5925   -6.4293    0.5391 C   0  0  0  0  0  0  0  0  0  0  0  0
   -6.6154   -6.0749   -0.3650 C   0  0  0  0  0  0  0  0  0  0  0  0
   -6.5890   -4.8412   -1.0475 C   0  0  0  0  0  0  0  0  0  0  0  0
   -5.5609   -3.9214   -0.7811 C   0  0  0  0  0  0  0  0  0  0  0  0
   -4.5535   -4.3054    0.1137 C   0  0  0  0  0  0  0  0  0  0  0  0
   -3.5159   -0.3229    1.2662 N   0  0  0  0  0  0  0  0  0  0  0  0
   -3.9192    1.0926    1.3426 C   0  0  0  0  0  0  0  0  0  0  0  0
   -2.9432    1.9938    0.5534 C   0  0  0  0  0  0  0  0  0  0  0  0
   -1.8555    2.3724    1.4173 O   0  0  0  0  0  0  0  0  0  0  0  0
   -2.0536    3.5483    2.2277 C   0  0  0  0  0  0  0  0  0  0  0  0
   -1.8567    4.8152    1.3618 C   0  0  0  0  0  0  0  0  0  0  0  0
   -0.4558    4.9390    1.0933 O   0  0  0  0  0  0  0  0  0  0  0  0
   -0.0930    6.0741    0.3031 C   0  0  0  0  0  0  0  0  0  0  0  0
    1.4393    6.0642    0.1402 C   0  0  0  0  0  0  0  0  0  0  0  0
    1.8711    5.1104   -0.8973 N   0  0  0  0  0  0  0  0  0  0  0  0
    2.5637    3.9341   -0.6388 C   0  0  0  0  0  0  0  0  0  0  0  0
    2.3565    3.1528    0.5221 C   0  0  0  0  0  0  0  0  0  0  0  0
    3.0966    1.9655    0.7458 C   0  0  0  0  0  0  0  0  0  0  0  0
    4.0743    1.5449   -0.1809 C   0  0  0  0  0  0  0  0  0  0  0  0
    4.2679    2.3240   -1.3292 C   0  0  0  0  0  0  0  0  0  0  0  0
    3.5215    3.4803   -1.5570 C   0  0  0  0  0  0  0  0  0  0  0  0
    3.9477    4.0379   -2.7406 C   0  0  0  0  0  0  0  0  0  0  0  0
    3.7197    5.1656   -3.1645 O   0  0  0  0  0  0  0  0  0  0  0  0
    5.0030    3.2584   -3.2308 N   0  0  0  0  0  0  0  0  0  0  0  0
    5.8362    3.5546   -4.4147 C   0  0  0  0  0  0  0  0  0  0  0  0
    6.8385    4.6851   -4.0842 C   0  0  0  0  0  0  0  0  0  0  0  0
    7.6065    5.1092   -5.3528 C   0  0  0  0  0  0  0  0  0  0  0  0
    6.6578    5.4823   -6.4659 C   0  0  0  0  0  0  0  0  0  0  0  0
    6.9413    6.2732   -7.3531 O   0  0  0  0  0  0  0  0  0  0  0  0
    5.5137    4.7006   -6.6489 N   0  0  0  0  0  0  0  0  0  0  0  0
    4.9986    3.8499   -5.6578 C   0  0  0  0  0  0  0  0  0  0  0  0
    4.0399    3.1718   -5.9957 O   0  0  0  0  0  0  0  0  0  0  0  0
    5.1636    2.1712   -2.3642 C   0  0  0  0  0  0  0  0  0  0  0  0
    6.1687    1.4694   -2.3875 O   0  0  0  0  0  0  0  0  0  0  0  0
   -2.8217   -2.6139   -1.0652 H   0  0  0  0  0  0  0  0  0  0  0  0
   -1.9321   -2.2156    0.4048 H   0  0  0  0  0  0  0  0  0  0  0  0
   -1.9714   -3.9683    2.0327 H   0  0  0  0  0  0  0  0  0  0  0  0
   -2.5016   -5.3044    5.1414 H   0  0  0  0  0  0  0  0  0  0  0  0
   -1.2036   -3.3799    6.0533 H   0  0  0  0  0  0  0  0  0  0  0  0
    1.7821   -3.9379    2.9874 H   0  0  0  0  0  0  0  0  0  0  0  0
   -2.1700   -9.8361    2.6082 H   0  0  0  0  0  0  0  0  0  0  0  0
   -5.7228   -7.3312    1.1192 H   0  0  0  0  0  0  0  0  0  0  0  0
   -7.4484   -6.7549   -0.5178 H   0  0  0  0  0  0  0  0  0  0  0  0
   -7.3880   -4.5818   -1.7401 H   0  0  0  0  0  0  0  0  0  0  0  0
   -5.5727   -2.9343   -1.2310 H   0  0  0  0  0  0  0  0  0  0  0  0
   -2.9610   -0.7135    2.0176 H   0  0  0  0  0  0  0  0  0  0  0  0
   -3.9628    1.4080    2.3934 H   0  0  0  0  0  0  0  0  0  0  0  0
   -4.9284    1.1952    0.9190 H   0  0  0  0  0  0  0  0  0  0  0  0
   -3.4755    2.8734    0.1713 H   0  0  0  0  0  0  0  0  0  0  0  0
   -2.5616    1.4432   -0.3178 H   0  0  0  0  0  0  0  0  0  0  0  0
   -1.3224    3.5661    3.0462 H   0  0  0  0  0  0  0  0  0  0  0  0
   -3.0541    3.5548    2.6758 H   0  0  0  0  0  0  0  0  0  0  0  0
   -2.2150    5.6931    1.9149 H   0  0  0  0  0  0  0  0  0  0  0  0
   -2.4255    4.7470    0.4266 H   0  0  0  0  0  0  0  0  0  0  0  0
   -0.5787    6.0447   -0.6811 H   0  0  0  0  0  0  0  0  0  0  0  0
   -0.3955    6.9982    0.8113 H   0  0  0  0  0  0  0  0  0  0  0  0
    1.7709    7.0694   -0.1524 H   0  0  0  0  0  0  0  0  0  0  0  0
    1.9133    5.8322    1.1029 H   0  0  0  0  0  0  0  0  0  0  0  0
    2.0316    5.4846   -1.8273 H   0  0  0  0  0  0  0  0  0  0  0  0
    1.6092    3.4526    1.2503 H   0  0  0  0  0  0  0  0  0  0  0  0
    2.9125    1.3775    1.6420 H   0  0  0  0  0  0  0  0  0  0  0  0
    4.6603    0.6453   -0.0141 H   0  0  0  0  0  0  0  0  0  0  0  0
    6.4102    2.6480   -4.6473 H   0  0  0  0  0  0  0  0  0  0  0  0
    7.5307    4.3558   -3.2968 H   0  0  0  0  0  0  0  0  0  0  0  0
    6.2934    5.5513   -3.6847 H   0  0  0  0  0  0  0  0  0  0  0  0
    8.2621    5.9608   -5.1311 H   0  0  0  0  0  0  0  0  0  0  0  0
    8.2532    4.2939   -5.6961 H   0  0  0  0  0  0  0  0  0  0  0  0
    4.9756    4.8245   -7.4917 H   0  0  0  0  0  0  0  0  0  0  0  0
  1  2  2  0  0  0  0
  2  3  1  0  0  0  0
  2 28  1  0  0  0  0
  3  4  1  0  0  0  0
  3 57  1  0  0  0  0
  3 58  1  0  0  0  0
  4  5  1  0  0  0  0
  4 27  1  0  0  0  0
  5  6  2  0  0  0  0
  5 59  1  0  0  0  0
  6  7  1  0  0  0  0
  6 22  1  0  0  0  0
  7  8  2  0  0  0  0
  7 20  1  0  0  0  0
  8  9  1  0  0  0  0
  8 17  1  0  0  0  0
  9 10  2  0  0  0  0
  9 15  1  0  0  0  0
 10 11  1  0  0  0  0
 10 60  1  0  0  0  0
 11 12  2  0  0  0  0
 11 61  1  0  0  0  0
 12 13  1  0  0  0  0
 12 14  1  0  0  0  0
 14 15  2  0  0  0  0
 14 62  1  0  0  0  0
 15 16  1  0  0  0  0
 17 18  2  0  0  0  0
 17 19  1  0  0  0  0
 19 20  1  0  0  0  0
 19 63  1  0  0  0  0
 20 21  2  0  0  0  0
 22 23  2  0  0  0  0
 22 27  1  0  0  0  0
 23 24  1  0  0  0  0
 23 64  1  0  0  0  0
 24 25  2  0  0  0  0
 24 65  1  0  0  0  0
 25 26  1  0  0  0  0
 25 66  1  0  0  0  0
 26 27  2  0  0  0  0
 26 67  1  0  0  0  0
 28 29  1  0  0  0  0
 28 68  1  0  0  0  0
 29 30  1  0  0  0  0
 29 69  1  0  0  0  0
 29 70  1  0  0  0  0
 30 31  1  0  0  0  0
 30 71  1  0  0  0  0
 30 72  1  0  0  0  0
 31 32  1  0  0  0  0
 32 33  1  0  0  0  0
 32 73  1  0  0  0  0
 32 74  1  0  0  0  0
 33 34  1  0  0  0  0
 33 75  1  0  0  0  0
 33 76  1  0  0  0  0
 34 35  1  0  0  0  0
 35 36  1  0  0  0  0
 35 77  1  0  0  0  0
 35 78  1  0  0  0  0
 36 37  1  0  0  0  0
 36 79  1  0  0  0  0
 36 80  1  0  0  0  0
 37 38  1  0  0  0  0
 37 81  1  0  0  0  0
 38 39  2  0  0  0  0
 38 43  1  0  0  0  0
 39 40  1  0  0  0  0
 39 82  1  0  0  0  0
 40 41  2  0  0  0  0
 40 83  1  0  0  0  0
 41 42  1  0  0  0  0
 41 84  1  0  0  0  0
 42 43  2  0  0  0  0
 42 55  1  0  0  0  0
 43 44  1  0  0  0  0
 44 45  2  0  0  0  0
 44 46  1  0  0  0  0
 46 47  1  0  0  0  0
 46 55  1  0  0  0  0
 47 48  1  0  0  0  0
 47 53  1  0  0  0  0
 47 85  1  0  0  0  0
 48 49  1  0  0  0  0
 48 86  1  0  0  0  0
 48 87  1  0  0  0  0
 49 50  1  0  0  0  0
 49 88  1  0  0  0  0
 49 89  1  0  0  0  0
 50 51  2  0  0  0  0
 50 52  1  0  0  0  0
 52 53  1  0  0  0  0
 52 90  1  0  0  0  0
 53 54  2  0  0  0  0
 55 56  2  0  0  0  0
M  END
$$$$
protac3895RUN2
  chem.cr 07102519423D
protac3895RUN2
 90 96  0  0  0  0  0  0  0  0999 V2000
   -4.0045    4.7165   -1.7691 O   0  0  0  0  0  0  0  0  0  0  0  0
   -3.0288    4.2206   -1.2280 C   0  0  0  0  0  0  0  0  0  0  0  0
   -2.6166    2.7711   -1.4163 C   0  0  0  0  0  0  0  0  0  0  0  0
   -3.2069    1.8369   -0.4311 N   0  0  0  0  0  0  0  0  0  0  0  0
   -4.4424    2.1334    0.1537 C   0  0  0  0  0  0  0  0  0  0  0  0
   -4.5187    1.6683    1.4221 C   0  0  0  0  0  0  0  0  0  0  0  0
   -5.6124    1.6866    2.2516 C   0  0  0  0  0  0  0  0  0  0  0  0
   -6.7747    2.3566    2.0352 C   0  0  0  0  0  0  0  0  0  0  0  0
   -7.0784    3.1759    0.9631 C   0  0  0  0  0  0  0  0  0  0  0  0
   -7.9934    2.7237   -0.0074 C   0  0  0  0  0  0  0  0  0  0  0  0
   -8.3093    3.5232   -1.1179 C   0  0  0  0  0  0  0  0  0  0  0  0
   -7.7147    4.7856   -1.2624 C   0  0  0  0  0  0  0  0  0  0  0  0
   -8.0927    5.7804   -2.6616 Cl  0  0  0  0  0  0  0  0  0  0  0  0
   -6.8144    5.2551   -0.2928 C   0  0  0  0  0  0  0  0  0  0  0  0
   -6.4996    4.4589    0.8231 C   0  0  0  0  0  0  0  0  0  0  0  0
   -5.3625    5.0795    2.0212 Cl  0  0  0  0  0  0  0  0  0  0  0  0
   -7.6659    2.1346    3.0031 C   0  0  0  0  0  0  0  0  0  0  0  0
   -8.8175    2.5026    3.1863 O   0  0  0  0  0  0  0  0  0  0  0  0
   -7.0852    1.3020    3.9382 N   0  0  0  0  0  0  0  0  0  0  0  0
   -5.8290    1.0092    3.4117 C   0  0  0  0  0  0  0  0  0  0  0  0
   -5.2225    0.1426    4.0245 O   0  0  0  0  0  0  0  0  0  0  0  0
   -3.2482    1.1138    1.6779 C   0  0  0  0  0  0  0  0  0  0  0  0
   -2.6013    0.7290    2.8735 C   0  0  0  0  0  0  0  0  0  0  0  0
   -1.2759    0.2450    2.8230 C   0  0  0  0  0  0  0  0  0  0  0  0
   -0.5709    0.1908    1.6035 C   0  0  0  0  0  0  0  0  0  0  0  0
   -1.1590    0.6949    0.4328 C   0  0  0  0  0  0  0  0  0  0  0  0
   -2.4762    1.1674    0.5114 C   0  0  0  0  0  0  0  0  0  0  0  0
   -2.4498    4.9568   -0.1875 N   0  0  0  0  0  0  0  0  0  0  0  0
   -0.9959    5.0308    0.0163 C   0  0  0  0  0  0  0  0  0  0  0  0
   -0.5345    4.2267    1.2396 C   0  0  0  0  0  0  0  0  0  0  0  0
    0.8319    3.8769    1.0011 O   0  0  0  0  0  0  0  0  0  0  0  0
    1.4443    3.1105    2.0444 C   0  0  0  0  0  0  0  0  0  0  0  0
    2.7242    2.4686    1.4795 C   0  0  0  0  0  0  0  0  0  0  0  0
    2.3275    1.4834    0.5154 O   0  0  0  0  0  0  0  0  0  0  0  0
    3.3597    0.5804    0.1131 C   0  0  0  0  0  0  0  0  0  0  0  0
    2.7648   -0.3199   -0.9785 C   0  0  0  0  0  0  0  0  0  0  0  0
    3.6375   -1.4854   -1.1907 N   0  0  0  0  0  0  0  0  0  0  0  0
    4.1302   -1.9613   -2.4023 C   0  0  0  0  0  0  0  0  0  0  0  0
    4.0529   -1.2526   -3.6266 C   0  0  0  0  0  0  0  0  0  0  0  0
    4.5861   -1.8001   -4.8213 C   0  0  0  0  0  0  0  0  0  0  0  0
    5.2140   -3.0632   -4.8171 C   0  0  0  0  0  0  0  0  0  0  0  0
    5.2943   -3.7488   -3.6000 C   0  0  0  0  0  0  0  0  0  0  0  0
    4.7620   -3.2121   -2.4267 C   0  0  0  0  0  0  0  0  0  0  0  0
    4.9687   -4.1158   -1.4094 C   0  0  0  0  0  0  0  0  0  0  0  0
    4.3534   -4.1890   -0.3512 O   0  0  0  0  0  0  0  0  0  0  0  0
    5.6221   -5.2301   -1.9494 N   0  0  0  0  0  0  0  0  0  0  0  0
    6.1486   -6.3797   -1.1890 C   0  0  0  0  0  0  0  0  0  0  0  0
    5.0457   -7.4561   -1.0608 C   0  0  0  0  0  0  0  0  0  0  0  0
    5.4178   -8.4923    0.0204 C   0  0  0  0  0  0  0  0  0  0  0  0
    5.6664   -7.8076    1.3422 C   0  0  0  0  0  0  0  0  0  0  0  0
    5.3931   -8.2988    2.4266 O   0  0  0  0  0  0  0  0  0  0  0  0
    6.3798   -6.6059    1.3354 N   0  0  0  0  0  0  0  0  0  0  0  0
    6.7483   -5.9508    0.1514 C   0  0  0  0  0  0  0  0  0  0  0  0
    7.6326   -5.1117    0.2549 O   0  0  0  0  0  0  0  0  0  0  0  0
    5.8400   -4.9776   -3.3053 C   0  0  0  0  0  0  0  0  0  0  0  0
    6.2346   -5.8438   -4.0778 O   0  0  0  0  0  0  0  0  0  0  0  0
   -2.9339    2.4495   -2.4139 H   0  0  0  0  0  0  0  0  0  0  0  0
   -1.5258    2.6925   -1.3764 H   0  0  0  0  0  0  0  0  0  0  0  0
   -5.1866    2.6150   -0.4732 H   0  0  0  0  0  0  0  0  0  0  0  0
   -8.4588    1.7470    0.1025 H   0  0  0  0  0  0  0  0  0  0  0  0
   -9.0122    3.1652   -1.8644 H   0  0  0  0  0  0  0  0  0  0  0  0
   -6.3517    6.2299   -0.4120 H   0  0  0  0  0  0  0  0  0  0  0  0
   -7.6006    0.6751    4.5355 H   0  0  0  0  0  0  0  0  0  0  0  0
   -3.0604    0.8435    3.8441 H   0  0  0  0  0  0  0  0  0  0  0  0
   -0.7856   -0.0716    3.7401 H   0  0  0  0  0  0  0  0  0  0  0  0
    0.4525   -0.1744    1.5840 H   0  0  0  0  0  0  0  0  0  0  0  0
   -0.5956    0.7371   -0.4941 H   0  0  0  0  0  0  0  0  0  0  0  0
   -3.0347    5.6708    0.2302 H   0  0  0  0  0  0  0  0  0  0  0  0
   -0.7016    6.0803    0.1471 H   0  0  0  0  0  0  0  0  0  0  0  0
   -0.4811    4.6591   -0.8790 H   0  0  0  0  0  0  0  0  0  0  0  0
   -1.1440    3.3200    1.3448 H   0  0  0  0  0  0  0  0  0  0  0  0
   -0.6437    4.8247    2.1536 H   0  0  0  0  0  0  0  0  0  0  0  0
    0.7747    2.3173    2.4002 H   0  0  0  0  0  0  0  0  0  0  0  0
    1.6983    3.7560    2.8946 H   0  0  0  0  0  0  0  0  0  0  0  0
    3.2829    2.0024    2.3011 H   0  0  0  0  0  0  0  0  0  0  0  0
    3.3600    3.2343    1.0175 H   0  0  0  0  0  0  0  0  0  0  0  0
    4.2314    1.1189   -0.2816 H   0  0  0  0  0  0  0  0  0  0  0  0
    3.6807   -0.0321    0.9660 H   0  0  0  0  0  0  0  0  0  0  0  0
    1.7740   -0.6665   -0.6579 H   0  0  0  0  0  0  0  0  0  0  0  0
    2.6245    0.2714   -1.8886 H   0  0  0  0  0  0  0  0  0  0  0  0
    3.7921   -2.1024   -0.3985 H   0  0  0  0  0  0  0  0  0  0  0  0
    3.5934   -0.2731   -3.6707 H   0  0  0  0  0  0  0  0  0  0  0  0
    4.5119   -1.2425   -5.7514 H   0  0  0  0  0  0  0  0  0  0  0  0
    5.6250   -3.4934   -5.7272 H   0  0  0  0  0  0  0  0  0  0  0  0
    6.9784   -6.8111   -1.7643 H   0  0  0  0  0  0  0  0  0  0  0  0
    4.8811   -7.9422   -2.0314 H   0  0  0  0  0  0  0  0  0  0  0  0
    4.0998   -6.9693   -0.7824 H   0  0  0  0  0  0  0  0  0  0  0  0
    4.6067   -9.2214    0.1389 H   0  0  0  0  0  0  0  0  0  0  0  0
    6.3152   -9.0534   -0.2702 H   0  0  0  0  0  0  0  0  0  0  0  0
    6.6600   -6.2018    2.2169 H   0  0  0  0  0  0  0  0  0  0  0  0
  1  2  2  0  0  0  0
  2  3  1  0  0  0  0
  2 28  1  0  0  0  0
  3  4  1  0  0  0  0
  3 57  1  0  0  0  0
  3 58  1  0  0  0  0
  4  5  1  0  0  0  0
  4 27  1  0  0  0  0
  5  6  2  0  0  0  0
  5 59  1  0  0  0  0
  6  7  1  0  0  0  0
  6 22  1  0  0  0  0
  7  8  2  0  0  0  0
  7 20  1  0  0  0  0
  8  9  1  0  0  0  0
  8 17  1  0  0  0  0
  9 10  2  0  0  0  0
  9 15  1  0  0  0  0
 10 11  1  0  0  0  0
 10 60  1  0  0  0  0
 11 12  2  0  0  0  0
 11 61  1  0  0  0  0
 12 13  1  0  0  0  0
 12 14  1  0  0  0  0
 14 15  2  0  0  0  0
 14 62  1  0  0  0  0
 15 16  1  0  0  0  0
 17 18  2  0  0  0  0
 17 19  1  0  0  0  0
 19 20  1  0  0  0  0
 19 63  1  0  0  0  0
 20 21  2  0  0  0  0
 22 23  2  0  0  0  0
 22 27  1  0  0  0  0
 23 24  1  0  0  0  0
 23 64  1  0  0  0  0
 24 25  2  0  0  0  0
 24 65  1  0  0  0  0
 25 26  1  0  0  0  0
 25 66  1  0  0  0  0
 26 27  2  0  0  0  0
 26 67  1  0  0  0  0
 28 29  1  0  0  0  0
 28 68  1  0  0  0  0
 29 30  1  0  0  0  0
 29 69  1  0  0  0  0
 29 70  1  0  0  0  0
 30 31  1  0  0  0  0
 30 71  1  0  0  0  0
 30 72  1  0  0  0  0
 31 32  1  0  0  0  0
 32 33  1  0  0  0  0
 32 73  1  0  0  0  0
 32 74  1  0  0  0  0
 33 34  1  0  0  0  0
 33 75  1  0  0  0  0
 33 76  1  0  0  0  0
 34 35  1  0  0  0  0
 35 36  1  0  0  0  0
 35 77  1  0  0  0  0
 35 78  1  0  0  0  0
 36 37  1  0  0  0  0
 36 79  1  0  0  0  0
 36 80  1  0  0  0  0
 37 38  1  0  0  0  0
 37 81  1  0  0  0  0
 38 39  2  0  0  0  0
 38 43  1  0  0  0  0
 39 40  1  0  0  0  0
 39 82  1  0  0  0  0
 40 41  2  0  0  0  0
 40 83  1  0  0  0  0
 41 42  1  0  0  0  0
 41 84  1  0  0  0  0
 42 43  2  0  0  0  0
 42 55  1  0  0  0  0
 43 44  1  0  0  0  0
 44 45  2  0  0  0  0
 44 46  1  0  0  0  0
 46 47  1  0  0  0  0
 46 55  1  0  0  0  0
 47 48  1  0  0  0  0
 47 53  1  0  0  0  0
 47 85  1  0  0  0  0
 48 49  1  0  0  0  0
 48 86  1  0  0  0  0
 48 87  1  0  0  0  0
 49 50  1  0  0  0  0
 49 88  1  0  0  0  0
 49 89  1  0  0  0  0
 50 51  2  0  0  0  0
 50 52  1  0  0  0  0
 52 53  1  0  0  0  0
 52 90  1  0  0  0  0
 53 54  2  0  0  0  0
 55 56  2  0  0  0  0
M  END
$$$$
protac3895RUN2
  chem.cr 07102519423D
protac3895RUN2
 90 96  0  0  0  0  0  0  0  0999 V2000
   -3.0444    6.6593    0.1896 O   0  0  0  0  0  0  0  0  0  0  0  0
   -1.8987    6.3436   -0.1009 C   0  0  0  0  0  0  0  0  0  0  0  0
   -0.8065    7.3573   -0.3624 C   0  0  0  0  0  0  0  0  0  0  0  0
    0.3210    7.3594    0.5931 N   0  0  0  0  0  0  0  0  0  0  0  0
    0.3909    6.5224    1.7142 C   0  0  0  0  0  0  0  0  0  0  0  0
    1.6782    6.2531    2.0318 C   0  0  0  0  0  0  0  0  0  0  0  0
    2.1432    5.3565    2.9529 C   0  0  0  0  0  0  0  0  0  0  0  0
    1.4057    4.7408    3.9074 C   0  0  0  0  0  0  0  0  0  0  0  0
    0.0717    4.9629    4.1860 C   0  0  0  0  0  0  0  0  0  0  0  0
   -0.8829    3.9799    3.8575 C   0  0  0  0  0  0  0  0  0  0  0  0
   -2.2461    4.1981    4.1221 C   0  0  0  0  0  0  0  0  0  0  0  0
   -2.6611    5.3964    4.7255 C   0  0  0  0  0  0  0  0  0  0  0  0
   -4.3662    5.6619    5.0714 Cl  0  0  0  0  0  0  0  0  0  0  0  0
   -1.7156    6.3761    5.0698 C   0  0  0  0  0  0  0  0  0  0  0  0
   -0.3531    6.1638    4.8012 C   0  0  0  0  0  0  0  0  0  0  0  0
    0.8070    7.4190    5.2451 Cl  0  0  0  0  0  0  0  0  0  0  0  0
    2.1325    3.8706    4.6096 C   0  0  0  0  0  0  0  0  0  0  0  0
    1.8694    3.0981    5.5215 O   0  0  0  0  0  0  0  0  0  0  0  0
    3.4306    3.9201    4.1371 N   0  0  0  0  0  0  0  0  0  0  0  0
    3.3859    4.8268    3.0799 C   0  0  0  0  0  0  0  0  0  0  0  0
    4.4098    4.8801    2.4140 O   0  0  0  0  0  0  0  0  0  0  0  0
    2.4494    7.0489    1.1677 C   0  0  0  0  0  0  0  0  0  0  0  0
    3.7978    7.4650    1.2272 C   0  0  0  0  0  0  0  0  0  0  0  0
    4.2795    8.3875    0.2734 C   0  0  0  0  0  0  0  0  0  0  0  0
    3.4147    8.9502   -0.6893 C   0  0  0  0  0  0  0  0  0  0  0  0
    2.0461    8.6300   -0.6782 C   0  0  0  0  0  0  0  0  0  0  0  0
    1.6025    7.6926    0.2609 C   0  0  0  0  0  0  0  0  0  0  0  0
   -1.6279    5.0039   -0.4299 N   0  0  0  0  0  0  0  0  0  0  0  0
   -2.7028    4.0261   -0.6709 C   0  0  0  0  0  0  0  0  0  0  0  0
   -2.2385    2.5665   -0.5645 C   0  0  0  0  0  0  0  0  0  0  0  0
   -3.3828    1.7776   -0.9116 O   0  0  0  0  0  0  0  0  0  0  0  0
   -3.3539    0.3901   -0.5430 C   0  0  0  0  0  0  0  0  0  0  0  0
   -2.2742   -0.3633   -1.3402 C   0  0  0  0  0  0  0  0  0  0  0  0
   -2.6358   -1.7470   -1.2705 O   0  0  0  0  0  0  0  0  0  0  0  0
   -1.6367   -2.6810   -1.6835 C   0  0  0  0  0  0  0  0  0  0  0  0
   -2.3858   -3.9260   -2.1899 C   0  0  0  0  0  0  0  0  0  0  0  0
   -1.5101   -5.1082   -2.1662 N   0  0  0  0  0  0  0  0  0  0  0  0
   -1.3459   -5.9378   -1.0615 C   0  0  0  0  0  0  0  0  0  0  0  0
   -1.9247   -5.6503    0.1979 C   0  0  0  0  0  0  0  0  0  0  0  0
   -1.7501   -6.5155    1.3028 C   0  0  0  0  0  0  0  0  0  0  0  0
   -0.9727   -7.6837    1.1826 C   0  0  0  0  0  0  0  0  0  0  0  0
   -0.4015   -7.9571   -0.0635 C   0  0  0  0  0  0  0  0  0  0  0  0
   -0.5865   -7.1125   -1.1615 C   0  0  0  0  0  0  0  0  0  0  0  0
    0.0805   -7.6596   -2.2330 C   0  0  0  0  0  0  0  0  0  0  0  0
    0.2562   -7.1689   -3.3435 O   0  0  0  0  0  0  0  0  0  0  0  0
    0.7168   -8.8320   -1.7995 N   0  0  0  0  0  0  0  0  0  0  0  0
    1.4282   -9.8356   -2.6151 C   0  0  0  0  0  0  0  0  0  0  0  0
    2.9316   -9.4818   -2.7067 C   0  0  0  0  0  0  0  0  0  0  0  0
    3.2109   -8.5720   -3.9222 C   0  0  0  0  0  0  0  0  0  0  0  0
    2.6974   -9.2053   -5.1927 C   0  0  0  0  0  0  0  0  0  0  0  0
    3.2862   -9.1560   -6.2619 O   0  0  0  0  0  0  0  0  0  0  0  0
    1.4935   -9.9148   -5.1482 N   0  0  0  0  0  0  0  0  0  0  0  0
    0.7604  -10.0889   -3.9654 C   0  0  0  0  0  0  0  0  0  0  0  0
   -0.2968  -10.6942   -4.0778 O   0  0  0  0  0  0  0  0  0  0  0  0
    0.3842   -9.0122   -0.4540 C   0  0  0  0  0  0  0  0  0  0  0  0
    0.9253   -9.8561    0.2511 O   0  0  0  0  0  0  0  0  0  0  0  0
   -0.4088    7.1928   -1.3691 H   0  0  0  0  0  0  0  0  0  0  0  0
   -1.2598    8.3549   -0.3434 H   0  0  0  0  0  0  0  0  0  0  0  0
   -0.5344    6.1164    2.1119 H   0  0  0  0  0  0  0  0  0  0  0  0
   -0.5600    3.0471    3.4022 H   0  0  0  0  0  0  0  0  0  0  0  0
   -2.9798    3.4365    3.8755 H   0  0  0  0  0  0  0  0  0  0  0  0
   -2.0364    7.2951    5.5531 H   0  0  0  0  0  0  0  0  0  0  0  0
    4.0896    3.1588    4.1935 H   0  0  0  0  0  0  0  0  0  0  0  0
    4.4671    7.1532    2.0177 H   0  0  0  0  0  0  0  0  0  0  0  0
    5.3203    8.6963    0.3060 H   0  0  0  0  0  0  0  0  0  0  0  0
    3.7950    9.6767   -1.4001 H   0  0  0  0  0  0  0  0  0  0  0  0
    1.3484    9.1282   -1.3447 H   0  0  0  0  0  0  0  0  0  0  0  0
   -0.6639    4.7299   -0.5760 H   0  0  0  0  0  0  0  0  0  0  0  0
   -3.1304    4.2023   -1.6667 H   0  0  0  0  0  0  0  0  0  0  0  0
   -3.5068    4.1842    0.0612 H   0  0  0  0  0  0  0  0  0  0  0  0
   -1.9091    2.3555    0.4628 H   0  0  0  0  0  0  0  0  0  0  0  0
   -1.4084    2.3740   -1.2575 H   0  0  0  0  0  0  0  0  0  0  0  0
   -4.3299   -0.0624   -0.7626 H   0  0  0  0  0  0  0  0  0  0  0  0
   -3.1686    0.2735    0.5325 H   0  0  0  0  0  0  0  0  0  0  0  0
   -1.2847   -0.1774   -0.9037 H   0  0  0  0  0  0  0  0  0  0  0  0
   -2.2761   -0.0242   -2.3843 H   0  0  0  0  0  0  0  0  0  0  0  0
   -1.0104   -2.2826   -2.4917 H   0  0  0  0  0  0  0  0  0  0  0  0
   -0.9893   -2.9392   -0.8333 H   0  0  0  0  0  0  0  0  0  0  0  0
   -3.2794   -4.1030   -1.5757 H   0  0  0  0  0  0  0  0  0  0  0  0
   -2.7392   -3.7366   -3.2115 H   0  0  0  0  0  0  0  0  0  0  0  0
   -1.0291   -5.3830   -3.0176 H   0  0  0  0  0  0  0  0  0  0  0  0
   -2.5173   -4.7547    0.3408 H   0  0  0  0  0  0  0  0  0  0  0  0
   -2.2209   -6.2743    2.2526 H   0  0  0  0  0  0  0  0  0  0  0  0
   -0.8233   -8.3532    2.0255 H   0  0  0  0  0  0  0  0  0  0  0  0
    1.3534  -10.7876   -2.0712 H   0  0  0  0  0  0  0  0  0  0  0  0
    3.5073  -10.4099   -2.8130 H   0  0  0  0  0  0  0  0  0  0  0  0
    3.2634   -8.9982   -1.7769 H   0  0  0  0  0  0  0  0  0  0  0  0
    2.7305   -7.5952   -3.7911 H   0  0  0  0  0  0  0  0  0  0  0  0
    4.2857   -8.3757   -4.0165 H   0  0  0  0  0  0  0  0  0  0  0  0
    1.0936  -10.2417   -6.0146 H   0  0  0  0  0  0  0  0  0  0  0  0
  1  2  2  0  0  0  0
  2  3  1  0  0  0  0
  2 28  1  0  0  0  0
  3  4  1  0  0  0  0
  3 57  1  0  0  0  0
  3 58  1  0  0  0  0
  4  5  1  0  0  0  0
  4 27  1  0  0  0  0
  5  6  2  0  0  0  0
  5 59  1  0  0  0  0
  6  7  1  0  0  0  0
  6 22  1  0  0  0  0
  7  8  2  0  0  0  0
  7 20  1  0  0  0  0
  8  9  1  0  0  0  0
  8 17  1  0  0  0  0
  9 10  2  0  0  0  0
  9 15  1  0  0  0  0
 10 11  1  0  0  0  0
 10 60  1  0  0  0  0
 11 12  2  0  0  0  0
 11 61  1  0  0  0  0
 12 13  1  0  0  0  0
 12 14  1  0  0  0  0
 14 15  2  0  0  0  0
 14 62  1  0  0  0  0
 15 16  1  0  0  0  0
 17 18  2  0  0  0  0
 17 19  1  0  0  0  0
 19 20  1  0  0  0  0
 19 63  1  0  0  0  0
 20 21  2  0  0  0  0
 22 23  2  0  0  0  0
 22 27  1  0  0  0  0
 23 24  1  0  0  0  0
 23 64  1  0  0  0  0
 24 25  2  0  0  0  0
 24 65  1  0  0  0  0
 25 26  1  0  0  0  0
 25 66  1  0  0  0  0
 26 27  2  0  0  0  0
 26 67  1  0  0  0  0
 28 29  1  0  0  0  0
 28 68  1  0  0  0  0
 29 30  1  0  0  0  0
 29 69  1  0  0  0  0
 29 70  1  0  0  0  0
 30 31  1  0  0  0  0
 30 71  1  0  0  0  0
 30 72  1  0  0  0  0
 31 32  1  0  0  0  0
 32 33  1  0  0  0  0
 32 73  1  0  0  0  0
 32 74  1  0  0  0  0
 33 34  1  0  0  0  0
 33 75  1  0  0  0  0
 33 76  1  0  0  0  0
 34 35  1  0  0  0  0
 35 36  1  0  0  0  0
 35 77  1  0  0  0  0
 35 78  1  0  0  0  0
 36 37  1  0  0  0  0
 36 79  1  0  0  0  0
 36 80  1  0  0  0  0
 37 38  1  0  0  0  0
 37 81  1  0  0  0  0
 38 39  2  0  0  0  0
 38 43  1  0  0  0  0
 39 40  1  0  0  0  0
 39 82  1  0  0  0  0
 40 41  2  0  0  0  0
 40 83  1  0  0  0  0
 41 42  1  0  0  0  0
 41 84  1  0  0  0  0
 42 43  2  0  0  0  0
 42 55  1  0  0  0  0
 43 44  1  0  0  0  0
 44 45  2  0  0  0  0
 44 46  1  0  0  0  0
 46 47  1  0  0  0  0
 46 55  1  0  0  0  0
 47 48  1  0  0  0  0
 47 53  1  0  0  0  0
 47 85  1  0  0  0  0
 48 49  1  0  0  0  0
 48 86  1  0  0  0  0
 48 87  1  0  0  0  0
 49 50  1  0  0  0  0
 49 88  1  0  0  0  0
 49 89  1  0  0  0  0
 50 51  2  0  0  0  0
 50 52  1  0  0  0  0
 52 53  1  0  0  0  0
 52 90  1  0  0  0  0
 53 54  2  0  0  0  0
 55 56  2  0  0  0  0
M  END
$$$$
protac3895RUN2
  chem.cr 07102519423D
protac3895RUN2
 90 96  0  0  0  0  0  0  0  0999 V2000
    0.5547    1.1629   -1.2459 O   0  0  0  0  0  0  0  0  0  0  0  0
    0.1470    2.2648   -0.9057 C   0  0  0  0  0  0  0  0  0  0  0  0
   -1.2268    2.7594   -1.2870 C   0  0  0  0  0  0  0  0  0  0  0  0
   -1.3108    4.2023   -1.5901 N   0  0  0  0  0  0  0  0  0  0  0  0
   -1.5610    5.1083   -0.5504 C   0  0  0  0  0  0  0  0  0  0  0  0
   -2.2628    6.1780   -0.9834 C   0  0  0  0  0  0  0  0  0  0  0  0
   -2.5543    7.3171   -0.2832 C   0  0  0  0  0  0  0  0  0  0  0  0
   -2.4040    7.5067    1.0508 C   0  0  0  0  0  0  0  0  0  0  0  0
   -1.9959    6.5708    1.9918 C   0  0  0  0  0  0  0  0  0  0  0  0
   -0.7686    6.7528    2.6616 C   0  0  0  0  0  0  0  0  0  0  0  0
   -0.3444    5.8344    3.6397 C   0  0  0  0  0  0  0  0  0  0  0  0
   -1.1557    4.7385    3.9681 C   0  0  0  0  0  0  0  0  0  0  0  0
   -0.6580    3.6250    5.2364 Cl  0  0  0  0  0  0  0  0  0  0  0  0
   -2.3837    4.5513    3.3158 C   0  0  0  0  0  0  0  0  0  0  0  0
   -2.8069    5.4628    2.3307 C   0  0  0  0  0  0  0  0  0  0  0  0
   -4.3649    5.1986    1.5505 Cl  0  0  0  0  0  0  0  0  0  0  0  0
   -2.7184    8.7537    1.4063 C   0  0  0  0  0  0  0  0  0  0  0  0
   -2.7051    9.3545    2.4746 O   0  0  0  0  0  0  0  0  0  0  0  0
   -3.1288    9.4366    0.2779 N   0  0  0  0  0  0  0  0  0  0  0  0
   -2.9773    8.5198   -0.7596 C   0  0  0  0  0  0  0  0  0  0  0  0
   -3.1387    8.9880   -1.8765 O   0  0  0  0  0  0  0  0  0  0  0  0
   -2.5789    5.8882   -2.3199 C   0  0  0  0  0  0  0  0  0  0  0  0
   -3.5462    6.4284   -3.1974 C   0  0  0  0  0  0  0  0  0  0  0  0
   -3.7075    5.8708   -4.4841 C   0  0  0  0  0  0  0  0  0  0  0  0
   -2.9639    4.7418   -4.8798 C   0  0  0  0  0  0  0  0  0  0  0  0
   -2.0945    4.1193   -3.9664 C   0  0  0  0  0  0  0  0  0  0  0  0
   -1.9429    4.7006   -2.6992 C   0  0  0  0  0  0  0  0  0  0  0  0
    0.7419    2.8771    0.2115 N   0  0  0  0  0  0  0  0  0  0  0  0
    1.5377    2.1328    1.2012 C   0  0  0  0  0  0  0  0  0  0  0  0
    0.6334    1.5011    2.2776 C   0  0  0  0  0  0  0  0  0  0  0  0
    1.3139    0.3553    2.8230 O   0  0  0  0  0  0  0  0  0  0  0  0
    0.8440   -0.1507    4.0910 C   0  0  0  0  0  0  0  0  0  0  0  0
   -0.6400   -0.6175    4.0271 C   0  0  0  0  0  0  0  0  0  0  0  0
   -0.7231   -2.0530    3.9412 O   0  0  0  0  0  0  0  0  0  0  0  0
   -0.4075   -2.6618    2.6784 C   0  0  0  0  0  0  0  0  0  0  0  0
    0.8295   -3.5448    2.9003 C   0  0  0  0  0  0  0  0  0  0  0  0
    1.0593   -4.4427    1.7506 N   0  0  0  0  0  0  0  0  0  0  0  0
    2.3031   -4.9401    1.3707 C   0  0  0  0  0  0  0  0  0  0  0  0
    3.4676   -4.7372    2.1510 C   0  0  0  0  0  0  0  0  0  0  0  0
    4.7252   -5.2191    1.7253 C   0  0  0  0  0  0  0  0  0  0  0  0
    4.8518   -5.9094    0.5043 C   0  0  0  0  0  0  0  0  0  0  0  0
    3.6926   -6.1301   -0.2520 C   0  0  0  0  0  0  0  0  0  0  0  0
    2.4445   -5.6694    0.1776 C   0  0  0  0  0  0  0  0  0  0  0  0
    1.5084   -6.0646   -0.7542 C   0  0  0  0  0  0  0  0  0  0  0  0
    0.2938   -6.1470   -0.5915 O   0  0  0  0  0  0  0  0  0  0  0  0
    2.1617   -6.8124   -1.7491 N   0  0  0  0  0  0  0  0  0  0  0  0
    1.4871   -7.6687   -2.7599 C   0  0  0  0  0  0  0  0  0  0  0  0
    2.1562   -9.0610   -2.9028 C   0  0  0  0  0  0  0  0  0  0  0  0
    1.4159   -9.8987   -3.9671 C   0  0  0  0  0  0  0  0  0  0  0  0
    1.2992   -9.1545   -5.2771 C   0  0  0  0  0  0  0  0  0  0  0  0
    1.2253   -9.7132   -6.3622 O   0  0  0  0  0  0  0  0  0  0  0  0
    1.1368   -7.7658   -5.2621 N   0  0  0  0  0  0  0  0  0  0  0  0
    1.3417   -6.9797   -4.1140 C   0  0  0  0  0  0  0  0  0  0  0  0
    1.1270   -5.7808   -4.2530 O   0  0  0  0  0  0  0  0  0  0  0  0
    3.5290   -6.7946   -1.4428 C   0  0  0  0  0  0  0  0  0  0  0  0
    4.3899   -6.9892   -2.3010 O   0  0  0  0  0  0  0  0  0  0  0  0
   -1.5532    2.1975   -2.1681 H   0  0  0  0  0  0  0  0  0  0  0  0
   -1.9233    2.5228   -0.4759 H   0  0  0  0  0  0  0  0  0  0  0  0
   -1.1021    4.9217    0.4109 H   0  0  0  0  0  0  0  0  0  0  0  0
   -0.1522    7.6173    2.4298 H   0  0  0  0  0  0  0  0  0  0  0  0
    0.5956    5.9926    4.1613 H   0  0  0  0  0  0  0  0  0  0  0  0
   -3.0196    3.7144    3.5876 H   0  0  0  0  0  0  0  0  0  0  0  0
   -3.0424   10.4320    0.1513 H   0  0  0  0  0  0  0  0  0  0  0  0
   -4.2155    7.2238   -2.9007 H   0  0  0  0  0  0  0  0  0  0  0  0
   -4.4269    6.3074   -5.1726 H   0  0  0  0  0  0  0  0  0  0  0  0
   -3.1048    4.3192   -5.8718 H   0  0  0  0  0  0  0  0  0  0  0  0
   -1.5696    3.2076   -4.2365 H   0  0  0  0  0  0  0  0  0  0  0  0
    0.5886    3.8673    0.3451 H   0  0  0  0  0  0  0  0  0  0  0  0
    2.2620    2.8118    1.6696 H   0  0  0  0  0  0  0  0  0  0  0  0
    2.1056    1.3418    0.6896 H   0  0  0  0  0  0  0  0  0  0  0  0
   -0.3065    1.1885    1.8069 H   0  0  0  0  0  0  0  0  0  0  0  0
    0.4039    2.2471    3.0465 H   0  0  0  0  0  0  0  0  0  0  0  0
    0.9399    0.6227    4.8633 H   0  0  0  0  0  0  0  0  0  0  0  0
    1.4685   -0.9933    4.4102 H   0  0  0  0  0  0  0  0  0  0  0  0
   -1.1850   -0.1506    3.1989 H   0  0  0  0  0  0  0  0  0  0  0  0
   -1.1275   -0.2954    4.9557 H   0  0  0  0  0  0  0  0  0  0  0  0
   -1.2480   -3.2851    2.3500 H   0  0  0  0  0  0  0  0  0  0  0  0
   -0.2067   -1.9177    1.8965 H   0  0  0  0  0  0  0  0  0  0  0  0
    1.6888   -2.8808    3.0584 H   0  0  0  0  0  0  0  0  0  0  0  0
    0.6868   -4.1451    3.8092 H   0  0  0  0  0  0  0  0  0  0  0  0
    0.2826   -4.6673    1.1389 H   0  0  0  0  0  0  0  0  0  0  0  0
    3.4138   -4.2125    3.0989 H   0  0  0  0  0  0  0  0  0  0  0  0
    5.6040   -5.0465    2.3422 H   0  0  0  0  0  0  0  0  0  0  0  0
    5.8165   -6.2727    0.1617 H   0  0  0  0  0  0  0  0  0  0  0  0
    0.4627   -7.8381   -2.4025 H   0  0  0  0  0  0  0  0  0  0  0  0
    2.1744   -9.5757   -1.9330 H   0  0  0  0  0  0  0  0  0  0  0  0
    3.1972   -8.9470   -3.2307 H   0  0  0  0  0  0  0  0  0  0  0  0
    1.9546  -10.8375   -4.1422 H   0  0  0  0  0  0  0  0  0  0  0  0
    0.4125  -10.1719   -3.6219 H   0  0  0  0  0  0  0  0  0  0  0  0
    0.9762   -7.2921   -6.1406 H   0  0  0  0  0  0  0  0  0  0  0  0
  1  2  2  0  0  0  0
  2  3  1  0  0  0  0
  2 28  1  0  0  0  0
  3  4  1  0  0  0  0
  3 57  1  0  0  0  0
  3 58  1  0  0  0  0
  4  5  1  0  0  0  0
  4 27  1  0  0  0  0
  5  6  2  0  0  0  0
  5 59  1  0  0  0  0
  6  7  1  0  0  0  0
  6 22  1  0  0  0  0
  7  8  2  0  0  0  0
  7 20  1  0  0  0  0
  8  9  1  0  0  0  0
  8 17  1  0  0  0  0
  9 10  2  0  0  0  0
  9 15  1  0  0  0  0
 10 11  1  0  0  0  0
 10 60  1  0  0  0  0
 11 12  2  0  0  0  0
 11 61  1  0  0  0  0
 12 13  1  0  0  0  0
 12 14  1  0  0  0  0
 14 15  2  0  0  0  0
 14 62  1  0  0  0  0
 15 16  1  0  0  0  0
 17 18  2  0  0  0  0
 17 19  1  0  0  0  0
 19 20  1  0  0  0  0
 19 63  1  0  0  0  0
 20 21  2  0  0  0  0
 22 23  2  0  0  0  0
 22 27  1  0  0  0  0
 23 24  1  0  0  0  0
 23 64  1  0  0  0  0
 24 25  2  0  0  0  0
 24 65  1  0  0  0  0
 25 26  1  0  0  0  0
 25 66  1  0  0  0  0
 26 27  2  0  0  0  0
 26 67  1  0  0  0  0
 28 29  1  0  0  0  0
 28 68  1  0  0  0  0
 29 30  1  0  0  0  0
 29 69  1  0  0  0  0
 29 70  1  0  0  0  0
 30 31  1  0  0  0  0
 30 71  1  0  0  0  0
 30 72  1  0  0  0  0
 31 32  1  0  0  0  0
 32 33  1  0  0  0  0
 32 73  1  0  0  0  0
 32 74  1  0  0  0  0
 33 34  1  0  0  0  0
 33 75  1  0  0  0  0
 33 76  1  0  0  0  0
 34 35  1  0  0  0  0
 35 36  1  0  0  0  0
 35 77  1  0  0  0  0
 35 78  1  0  0  0  0
 36 37  1  0  0  0  0
 36 79  1  0  0  0  0
 36 80  1  0  0  0  0
 37 38  1  0  0  0  0
 37 81  1  0  0  0  0
 38 39  2  0  0  0  0
 38 43  1  0  0  0  0
 39 40  1  0  0  0  0
 39 82  1  0  0  0  0
 40 41  2  0  0  0  0
 40 83  1  0  0  0  0
 41 42  1  0  0  0  0
 41 84  1  0  0  0  0
 42 43  2  0  0  0  0
 42 55  1  0  0  0  0
 43 44  1  0  0  0  0
 44 45  2  0  0  0  0
 44 46  1  0  0  0  0
 46 47  1  0  0  0  0
 46 55  1  0  0  0  0
 47 48  1  0  0  0  0
 47 53  1  0  0  0  0
 47 85  1  0  0  0  0
 48 49  1  0  0  0  0
 48 86  1  0  0  0  0
 48 87  1  0  0  0  0
 49 50  1  0  0  0  0
 49 88  1  0  0  0  0
 49 89  1  0  0  0  0
 50 51  2  0  0  0  0
 50 52  1  0  0  0  0
 52 53  1  0  0  0  0
 52 90  1  0  0  0  0
 53 54  2  0  0  0  0
 55 56  2  0  0  0  0
M  END
$$$$
protac3895RUN2
  chem.cr 07102519423D
protac3895RUN2
 90 96  0  0  0  0  0  0  0  0999 V2000
   -0.1142   -3.0898    4.2264 O   0  0  0  0  0  0  0  0  0  0  0  0
    0.7088   -2.8417    3.3553 C   0  0  0  0  0  0  0  0  0  0  0  0
    2.0705   -3.4947    3.3128 C   0  0  0  0  0  0  0  0  0  0  0  0
    2.3958   -4.1519    2.0344 N   0  0  0  0  0  0  0  0  0  0  0  0
    1.9840   -5.4543    1.7298 C   0  0  0  0  0  0  0  0  0  0  0  0
    1.8762   -5.6195    0.3924 C   0  0  0  0  0  0  0  0  0  0  0  0
    1.3793   -6.7047   -0.2758 C   0  0  0  0  0  0  0  0  0  0  0  0
    1.1893   -7.9441    0.2381 C   0  0  0  0  0  0  0  0  0  0  0  0
    1.5676   -8.3823    1.4962 C   0  0  0  0  0  0  0  0  0  0  0  0
    0.5835   -8.7475    2.4364 C   0  0  0  0  0  0  0  0  0  0  0  0
    0.9522   -9.2057    3.7125 C   0  0  0  0  0  0  0  0  0  0  0  0
    2.3097   -9.3057    4.0563 C   0  0  0  0  0  0  0  0  0  0  0  0
    2.7719   -9.8783    5.6530 Cl  0  0  0  0  0  0  0  0  0  0  0  0
    3.2989   -8.9668    3.1216 C   0  0  0  0  0  0  0  0  0  0  0  0
    2.9335   -8.5135    1.8432 C   0  0  0  0  0  0  0  0  0  0  0  0
    4.2129   -8.1278    0.6895 Cl  0  0  0  0  0  0  0  0  0  0  0  0
    0.6337   -8.7669   -0.6531 C   0  0  0  0  0  0  0  0  0  0  0  0
    0.2919   -9.9423   -0.6154 O   0  0  0  0  0  0  0  0  0  0  0  0
    0.4651   -8.0700   -1.8346 N   0  0  0  0  0  0  0  0  0  0  0  0
    0.9151   -6.7810   -1.5488 C   0  0  0  0  0  0  0  0  0  0  0  0
    0.7067   -5.9595   -2.4310 O   0  0  0  0  0  0  0  0  0  0  0  0
    2.3290   -4.4136   -0.1683 C   0  0  0  0  0  0  0  0  0  0  0  0
    2.7536   -4.0962   -1.4755 C   0  0  0  0  0  0  0  0  0  0  0  0
    3.3065   -2.8235   -1.7335 C   0  0  0  0  0  0  0  0  0  0  0  0
    3.5013   -1.8912   -0.6917 C   0  0  0  0  0  0  0  0  0  0  0  0
    3.1841   -2.2441    0.6313 C   0  0  0  0  0  0  0  0  0  0  0  0
    2.6153   -3.5042    0.8532 C   0  0  0  0  0  0  0  0  0  0  0  0
    0.5426   -1.6797    2.5858 N   0  0  0  0  0  0  0  0  0  0  0  0
   -0.5467   -0.7158    2.8083 C   0  0  0  0  0  0  0  0  0  0  0  0
   -0.7309    0.2530    1.6192 C   0  0  0  0  0  0  0  0  0  0  0  0
    0.5067    0.9413    1.3449 O   0  0  0  0  0  0  0  0  0  0  0  0
    0.8284    2.0825    2.1659 C   0  0  0  0  0  0  0  0  0  0  0  0
   -0.1035    3.2653    1.8007 C   0  0  0  0  0  0  0  0  0  0  0  0
   -0.6298    3.8033    3.0255 O   0  0  0  0  0  0  0  0  0  0  0  0
   -1.7059    4.7554    2.9177 C   0  0  0  0  0  0  0  0  0  0  0  0
   -1.2261    6.0443    2.2070 C   0  0  0  0  0  0  0  0  0  0  0  0
   -1.4445    5.9601    0.7521 N   0  0  0  0  0  0  0  0  0  0  0  0
   -1.0508    6.9124   -0.1816 C   0  0  0  0  0  0  0  0  0  0  0  0
   -0.3730    8.1045    0.1747 C   0  0  0  0  0  0  0  0  0  0  0  0
    0.0277    9.0414   -0.8089 C   0  0  0  0  0  0  0  0  0  0  0  0
   -0.2457    8.8083   -2.1710 C   0  0  0  0  0  0  0  0  0  0  0  0
   -0.9232    7.6328   -2.5083 C   0  0  0  0  0  0  0  0  0  0  0  0
   -1.3166    6.7082   -1.5429 C   0  0  0  0  0  0  0  0  0  0  0  0
   -1.9499    5.6625   -2.1786 C   0  0  0  0  0  0  0  0  0  0  0  0
   -2.7986    4.9340   -1.6785 O   0  0  0  0  0  0  0  0  0  0  0  0
   -1.9512    5.9286   -3.5604 N   0  0  0  0  0  0  0  0  0  0  0  0
   -2.0771    4.9238   -4.6447 C   0  0  0  0  0  0  0  0  0  0  0  0
   -3.1966    5.3182   -5.6339 C   0  0  0  0  0  0  0  0  0  0  0  0
   -4.5723    5.0348   -4.9958 C   0  0  0  0  0  0  0  0  0  0  0  0
   -4.6887    3.5943   -4.5477 C   0  0  0  0  0  0  0  0  0  0  0  0
   -5.7307    2.9592   -4.5855 O   0  0  0  0  0  0  0  0  0  0  0  0
   -3.5364    2.9133   -4.1349 N   0  0  0  0  0  0  0  0  0  0  0  0
   -2.2586    3.4926   -4.1484 C   0  0  0  0  0  0  0  0  0  0  0  0
   -1.3230    2.7510   -3.8819 O   0  0  0  0  0  0  0  0  0  0  0  0
   -1.3107    7.1616   -3.7374 C   0  0  0  0  0  0  0  0  0  0  0  0
   -1.0340    7.6132   -4.8444 O   0  0  0  0  0  0  0  0  0  0  0  0
    2.8370   -2.7413    3.5237 H   0  0  0  0  0  0  0  0  0  0  0  0
    2.1250   -4.2414    4.1136 H   0  0  0  0  0  0  0  0  0  0  0  0
    1.6982   -6.1155    2.5424 H   0  0  0  0  0  0  0  0  0  0  0  0
   -0.4676   -8.6780    2.1696 H   0  0  0  0  0  0  0  0  0  0  0  0
    0.1888   -9.4878    4.4322 H   0  0  0  0  0  0  0  0  0  0  0  0
    4.3492   -9.0649    3.3827 H   0  0  0  0  0  0  0  0  0  0  0  0
   -0.2405   -8.2774   -2.5243 H   0  0  0  0  0  0  0  0  0  0  0  0
    2.7272   -4.8193   -2.2790 H   0  0  0  0  0  0  0  0  0  0  0  0
    3.6187   -2.5716   -2.7435 H   0  0  0  0  0  0  0  0  0  0  0  0
    3.9512   -0.9247   -0.9053 H   0  0  0  0  0  0  0  0  0  0  0  0
    3.4151   -1.5736    1.4531 H   0  0  0  0  0  0  0  0  0  0  0  0
    1.1623   -1.5302    1.7972 H   0  0  0  0  0  0  0  0  0  0  0  0
   -0.3538   -0.1523    3.7303 H   0  0  0  0  0  0  0  0  0  0  0  0
   -1.4823   -1.2727    2.9565 H   0  0  0  0  0  0  0  0  0  0  0  0
   -1.5423    0.9561    1.8444 H   0  0  0  0  0  0  0  0  0  0  0  0
   -1.0334   -0.3226    0.7362 H   0  0  0  0  0  0  0  0  0  0  0  0
    1.8660    2.3902    1.9840 H   0  0  0  0  0  0  0  0  0  0  0  0
    0.7410    1.8398    3.2327 H   0  0  0  0  0  0  0  0  0  0  0  0
   -0.9141    2.9283    1.1430 H   0  0  0  0  0  0  0  0  0  0  0  0
    0.4730    4.0224    1.2551 H   0  0  0  0  0  0  0  0  0  0  0  0
   -2.5713    4.3231    2.3971 H   0  0  0  0  0  0  0  0  0  0  0  0
   -2.0391    5.0237    3.9283 H   0  0  0  0  0  0  0  0  0  0  0  0
   -1.7948    6.8965    2.6026 H   0  0  0  0  0  0  0  0  0  0  0  0
   -0.1638    6.2122    2.4340 H   0  0  0  0  0  0  0  0  0  0  0  0
   -1.9601    5.1661    0.3851 H   0  0  0  0  0  0  0  0  0  0  0  0
   -0.1508    8.3165    1.2154 H   0  0  0  0  0  0  0  0  0  0  0  0
    0.5503    9.9488   -0.5150 H   0  0  0  0  0  0  0  0  0  0  0  0
    0.0557    9.5148   -2.9402 H   0  0  0  0  0  0  0  0  0  0  0  0
   -1.1258    4.9382   -5.1939 H   0  0  0  0  0  0  0  0  0  0  0  0
   -3.0866    4.7294   -6.5556 H   0  0  0  0  0  0  0  0  0  0  0  0
   -3.1111    6.3753   -5.9156 H   0  0  0  0  0  0  0  0  0  0  0  0
   -4.7291    5.6861   -4.1246 H   0  0  0  0  0  0  0  0  0  0  0  0
   -5.3718    5.2595   -5.7134 H   0  0  0  0  0  0  0  0  0  0  0  0
   -3.6276    1.9597   -3.8196 H   0  0  0  0  0  0  0  0  0  0  0  0
  1  2  2  0  0  0  0
  2  3  1  0  0  0  0
  2 28  1  0  0  0  0
  3  4  1  0  0  0  0
  3 57  1  0  0  0  0
  3 58  1  0  0  0  0
  4  5  1  0  0  0  0
  4 27  1  0  0  0  0
  5  6  2  0  0  0  0
  5 59  1  0  0  0  0
  6  7  1  0  0  0  0
  6 22  1  0  0  0  0
  7  8  2  0  0  0  0
  7 20  1  0  0  0  0
  8  9  1  0  0  0  0
  8 17  1  0  0  0  0
  9 10  2  0  0  0  0
  9 15  1  0  0  0  0
 10 11  1  0  0  0  0
 10 60  1  0  0  0  0
 11 12  2  0  0  0  0
 11 61  1  0  0  0  0
 12 13  1  0  0  0  0
 12 14  1  0  0  0  0
 14 15  2  0  0  0  0
 14 62  1  0  0  0  0
 15 16  1  0  0  0  0
 17 18  2  0  0  0  0
 17 19  1  0  0  0  0
 19 20  1  0  0  0  0
 19 63  1  0  0  0  0
 20 21  2  0  0  0  0
 22 23  2  0  0  0  0
 22 27  1  0  0  0  0
 23 24  1  0  0  0  0
 23 64  1  0  0  0  0
 24 25  2  0  0  0  0
 24 65  1  0  0  0  0
 25 26  1  0  0  0  0
 25 66  1  0  0  0  0
 26 27  2  0  0  0  0
 26 67  1  0  0  0  0
 28 29  1  0  0  0  0
 28 68  1  0  0  0  0
 29 30  1  0  0  0  0
 29 69  1  0  0  0  0
 29 70  1  0  0  0  0
 30 31  1  0  0  0  0
 30 71  1  0  0  0  0
 30 72  1  0  0  0  0
 31 32  1  0  0  0  0
 32 33  1  0  0  0  0
 32 73  1  0  0  0  0
 32 74  1  0  0  0  0
 33 34  1  0  0  0  0
 33 75  1  0  0  0  0
 33 76  1  0  0  0  0
 34 35  1  0  0  0  0
 35 36  1  0  0  0  0
 35 77  1  0  0  0  0
 35 78  1  0  0  0  0
 36 37  1  0  0  0  0
 36 79  1  0  0  0  0
 36 80  1  0  0  0  0
 37 38  1  0  0  0  0
 37 81  1  0  0  0  0
 38 39  2  0  0  0  0
 38 43  1  0  0  0  0
 39 40  1  0  0  0  0
 39 82  1  0  0  0  0
 40 41  2  0  0  0  0
 40 83  1  0  0  0  0
 41 42  1  0  0  0  0
 41 84  1  0  0  0  0
 42 43  2  0  0  0  0
 42 55  1  0  0  0  0
 43 44  1  0  0  0  0
 44 45  2  0  0  0  0
 44 46  1  0  0  0  0
 46 47  1  0  0  0  0
 46 55  1  0  0  0  0
 47 48  1  0  0  0  0
 47 53  1  0  0  0  0
 47 85  1  0  0  0  0
 48 49  1  0  0  0  0
 48 86  1  0  0  0  0
 48 87  1  0  0  0  0
 49 50  1  0  0  0  0
 49 88  1  0  0  0  0
 49 89  1  0  0  0  0
 50 51  2  0  0  0  0
 50 52  1  0  0  0  0
 52 53  1  0  0  0  0
 52 90  1  0  0  0  0
 53 54  2  0  0  0  0
 55 56  2  0  0  0  0
M  END
$$$$
protac3895RUN2
  chem.cr 07102519423D
protac3895RUN2
 90 96  0  0  0  0  0  0  0  0999 V2000
    0.1705   -2.8447    1.7991 O   0  0  0  0  0  0  0  0  0  0  0  0
   -0.1758   -2.8111    0.6270 C   0  0  0  0  0  0  0  0  0  0  0  0
   -1.3021   -3.6483    0.0448 C   0  0  0  0  0  0  0  0  0  0  0  0
   -1.4647   -4.9974    0.6453 N   0  0  0  0  0  0  0  0  0  0  0  0
   -0.3455   -5.6582    1.1668 C   0  0  0  0  0  0  0  0  0  0  0  0
   -0.6424   -6.3614    2.2816 C   0  0  0  0  0  0  0  0  0  0  0  0
    0.2017   -7.1635    3.0116 C   0  0  0  0  0  0  0  0  0  0  0  0
    1.5512   -7.2520    2.8591 C   0  0  0  0  0  0  0  0  0  0  0  0
    2.3321   -6.5358    1.9724 C   0  0  0  0  0  0  0  0  0  0  0  0
    2.6802   -5.2018    2.2672 C   0  0  0  0  0  0  0  0  0  0  0  0
    3.4585   -4.4531    1.3677 C   0  0  0  0  0  0  0  0  0  0  0  0
    3.8702   -5.0274    0.1548 C   0  0  0  0  0  0  0  0  0  0  0  0
    4.8208   -4.0856   -0.9845 Cl  0  0  0  0  0  0  0  0  0  0  0  0
    3.5311   -6.3571   -0.1477 C   0  0  0  0  0  0  0  0  0  0  0  0
    2.7750   -7.1142    0.7638 C   0  0  0  0  0  0  0  0  0  0  0  0
    2.3677   -8.7812    0.3650 Cl  0  0  0  0  0  0  0  0  0  0  0  0
    2.0901   -8.1351    3.6999 C   0  0  0  0  0  0  0  0  0  0  0  0
    3.2341   -8.5276    3.8914 O   0  0  0  0  0  0  0  0  0  0  0  0
    1.0796   -8.6592    4.4779 N   0  0  0  0  0  0  0  0  0  0  0  0
   -0.0810   -8.0686    3.9844 C   0  0  0  0  0  0  0  0  0  0  0  0
   -1.1105   -8.5397    4.4506 O   0  0  0  0  0  0  0  0  0  0  0  0
   -2.0125   -6.1060    2.5066 C   0  0  0  0  0  0  0  0  0  0  0  0
   -2.8616   -6.3343    3.6125 C   0  0  0  0  0  0  0  0  0  0  0  0
   -4.2120   -5.9297    3.5514 C   0  0  0  0  0  0  0  0  0  0  0  0
   -4.7145   -5.2418    2.4293 C   0  0  0  0  0  0  0  0  0  0  0  0
   -3.8486   -4.8949    1.3807 C   0  0  0  0  0  0  0  0  0  0  0  0
   -2.5136   -5.3182    1.4630 C   0  0  0  0  0  0  0  0  0  0  0  0
    0.3903   -1.8323   -0.2069 N   0  0  0  0  0  0  0  0  0  0  0  0
    1.8172   -1.4679   -0.1325 C   0  0  0  0  0  0  0  0  0  0  0  0
    2.1601   -0.5562    1.0665 C   0  0  0  0  0  0  0  0  0  0  0  0
    3.5937   -0.4592    1.2089 O   0  0  0  0  0  0  0  0  0  0  0  0
    4.3599    0.1732    0.1600 C   0  0  0  0  0  0  0  0  0  0  0  0
    3.8939    1.6319   -0.0381 C   0  0  0  0  0  0  0  0  0  0  0  0
    2.8877    1.6401   -1.0580 O   0  0  0  0  0  0  0  0  0  0  0  0
    2.2415    2.9004   -1.2487 C   0  0  0  0  0  0  0  0  0  0  0  0
    1.3724    2.7542   -2.5075 C   0  0  0  0  0  0  0  0  0  0  0  0
    0.4957    3.9226   -2.6789 N   0  0  0  0  0  0  0  0  0  0  0  0
   -0.7604    4.0836   -2.1038 C   0  0  0  0  0  0  0  0  0  0  0  0
   -1.3043    3.1775   -1.1596 C   0  0  0  0  0  0  0  0  0  0  0  0
   -2.5968    3.3760   -0.6150 C   0  0  0  0  0  0  0  0  0  0  0  0
   -3.3704    4.4916   -0.9965 C   0  0  0  0  0  0  0  0  0  0  0  0
   -2.8062    5.3998   -1.9010 C   0  0  0  0  0  0  0  0  0  0  0  0
   -1.5412    5.1968   -2.4440 C   0  0  0  0  0  0  0  0  0  0  0  0
   -1.2687    6.2525   -3.2788 C   0  0  0  0  0  0  0  0  0  0  0  0
   -0.3975    6.3139   -4.1416 O   0  0  0  0  0  0  0  0  0  0  0  0
   -2.3400    7.1598   -3.2289 N   0  0  0  0  0  0  0  0  0  0  0  0
   -2.2594    8.6140   -3.5514 C   0  0  0  0  0  0  0  0  0  0  0  0
   -0.8715    9.2369   -3.2645 C   0  0  0  0  0  0  0  0  0  0  0  0
   -0.5553    9.1360   -1.7517 C   0  0  0  0  0  0  0  0  0  0  0  0
   -1.7249    9.5239   -0.8655 C   0  0  0  0  0  0  0  0  0  0  0  0
   -1.6181    9.7123    0.3373 O   0  0  0  0  0  0  0  0  0  0  0  0
   -2.9827    9.7607   -1.4400 N   0  0  0  0  0  0  0  0  0  0  0  0
   -3.2715    9.4503   -2.7792 C   0  0  0  0  0  0  0  0  0  0  0  0
   -4.2402   10.0001   -3.2865 O   0  0  0  0  0  0  0  0  0  0  0  0
   -3.3128    6.5809   -2.3897 C   0  0  0  0  0  0  0  0  0  0  0  0
   -4.4991    6.8776   -2.4702 O   0  0  0  0  0  0  0  0  0  0  0  0
   -2.2351   -3.0947    0.1880 H   0  0  0  0  0  0  0  0  0  0  0  0
   -1.1441   -3.7764   -1.0307 H   0  0  0  0  0  0  0  0  0  0  0  0
    0.5851   -5.5635    0.6189 H   0  0  0  0  0  0  0  0  0  0  0  0
    2.3363   -4.7484    3.1930 H   0  0  0  0  0  0  0  0  0  0  0  0
    3.7355   -3.4302    1.6158 H   0  0  0  0  0  0  0  0  0  0  0  0
    3.8602   -6.8032   -1.0808 H   0  0  0  0  0  0  0  0  0  0  0  0
    1.1093   -9.5642    4.9184 H   0  0  0  0  0  0  0  0  0  0  0  0
   -2.5115   -6.7617    4.5389 H   0  0  0  0  0  0  0  0  0  0  0  0
   -4.8689   -6.1349    4.3920 H   0  0  0  0  0  0  0  0  0  0  0  0
   -5.7555   -4.9314    2.4023 H   0  0  0  0  0  0  0  0  0  0  0  0
   -4.2032   -4.3097    0.5391 H   0  0  0  0  0  0  0  0  0  0  0  0
   -0.1494   -1.5146   -1.0006 H   0  0  0  0  0  0  0  0  0  0  0  0
    2.1043   -0.9592   -1.0616 H   0  0  0  0  0  0  0  0  0  0  0  0
    2.4060   -2.3897   -0.0575 H   0  0  0  0  0  0  0  0  0  0  0  0
    1.7479   -0.9934    1.9831 H   0  0  0  0  0  0  0  0  0  0  0  0
    1.6963    0.4294    0.9485 H   0  0  0  0  0  0  0  0  0  0  0  0
    4.2928   -0.3824   -0.7824 H   0  0  0  0  0  0  0  0  0  0  0  0
    5.4177    0.1895    0.4524 H   0  0  0  0  0  0  0  0  0  0  0  0
    4.7472    2.2477   -0.3484 H   0  0  0  0  0  0  0  0  0  0  0  0
    3.5084    2.0313    0.9090 H   0  0  0  0  0  0  0  0  0  0  0  0
    1.6211    3.1453   -0.3747 H   0  0  0  0  0  0  0  0  0  0  0  0
    2.9756    3.7043   -1.3957 H   0  0  0  0  0  0  0  0  0  0  0  0
    2.0308    2.6557   -3.3800 H   0  0  0  0  0  0  0  0  0  0  0  0
    0.7778    1.8358   -2.4439 H   0  0  0  0  0  0  0  0  0  0  0  0
    0.7545    4.6228   -3.3680 H   0  0  0  0  0  0  0  0  0  0  0  0
   -0.7319    2.3169   -0.8356 H   0  0  0  0  0  0  0  0  0  0  0  0
   -2.9927    2.6725    0.1118 H   0  0  0  0  0  0  0  0  0  0  0  0
   -4.3638    4.6607   -0.5889 H   0  0  0  0  0  0  0  0  0  0  0  0
   -2.4816    8.7253   -4.6210 H   0  0  0  0  0  0  0  0  0  0  0  0
   -0.8986   10.2954   -3.5577 H   0  0  0  0  0  0  0  0  0  0  0  0
   -0.0840    8.7707   -3.8699 H   0  0  0  0  0  0  0  0  0  0  0  0
   -0.2571    8.1109   -1.5028 H   0  0  0  0  0  0  0  0  0  0  0  0
    0.3081    9.7667   -1.5122 H   0  0  0  0  0  0  0  0  0  0  0  0
   -3.7064   10.1736   -0.8717 H   0  0  0  0  0  0  0  0  0  0  0  0
  1  2  2  0  0  0  0
  2  3  1  0  0  0  0
  2 28  1  0  0  0  0
  3  4  1  0  0  0  0
  3 57  1  0  0  0  0
  3 58  1  0  0  0  0
  4  5  1  0  0  0  0
  4 27  1  0  0  0  0
  5  6  2  0  0  0  0
  5 59  1  0  0  0  0
  6  7  1  0  0  0  0
  6 22  1  0  0  0  0
  7  8  2  0  0  0  0
  7 20  1  0  0  0  0
  8  9  1  0  0  0  0
  8 17  1  0  0  0  0
  9 10  2  0  0  0  0
  9 15  1  0  0  0  0
 10 11  1  0  0  0  0
 10 60  1  0  0  0  0
 11 12  2  0  0  0  0
 11 61  1  0  0  0  0
 12 13  1  0  0  0  0
 12 14  1  0  0  0  0
 14 15  2  0  0  0  0
 14 62  1  0  0  0  0
 15 16  1  0  0  0  0
 17 18  2  0  0  0  0
 17 19  1  0  0  0  0
 19 20  1  0  0  0  0
 19 63  1  0  0  0  0
 20 21  2  0  0  0  0
 22 23  2  0  0  0  0
 22 27  1  0  0  0  0
 23 24  1  0  0  0  0
 23 64  1  0  0  0  0
 24 25  2  0  0  0  0
 24 65  1  0  0  0  0
 25 26  1  0  0  0  0
 25 66  1  0  0  0  0
 26 27  2  0  0  0  0
 26 67  1  0  0  0  0
 28 29  1  0  0  0  0
 28 68  1  0  0  0  0
 29 30  1  0  0  0  0
 29 69  1  0  0  0  0
 29 70  1  0  0  0  0
 30 31  1  0  0  0  0
 30 71  1  0  0  0  0
 30 72  1  0  0  0  0
 31 32  1  0  0  0  0
 32 33  1  0  0  0  0
 32 73  1  0  0  0  0
 32 74  1  0  0  0  0
 33 34  1  0  0  0  0
 33 75  1  0  0  0  0
 33 76  1  0  0  0  0
 34 35  1  0  0  0  0
 35 36  1  0  0  0  0
 35 77  1  0  0  0  0
 35 78  1  0  0  0  0
 36 37  1  0  0  0  0
 36 79  1  0  0  0  0
 36 80  1  0  0  0  0
 37 38  1  0  0  0  0
 37 81  1  0  0  0  0
 38 39  2  0  0  0  0
 38 43  1  0  0  0  0
 39 40  1  0  0  0  0
 39 82  1  0  0  0  0
 40 41  2  0  0  0  0
 40 83  1  0  0  0  0
 41 42  1  0  0  0  0
 41 84  1  0  0  0  0
 42 43  2  0  0  0  0
 42 55  1  0  0  0  0
 43 44  1  0  0  0  0
 44 45  2  0  0  0  0
 44 46  1  0  0  0  0
 46 47  1  0  0  0  0
 46 55  1  0  0  0  0
 47 48  1  0  0  0  0
 47 53  1  0  0  0  0
 47 85  1  0  0  0  0
 48 49  1  0  0  0  0
 48 86  1  0  0  0  0
 48 87  1  0  0  0  0
 49 50  1  0  0  0  0
 49 88  1  0  0  0  0
 49 89  1  0  0  0  0
 50 51  2  0  0  0  0
 50 52  1  0  0  0  0
 52 53  1  0  0  0  0
 52 90  1  0  0  0  0
 53 54  2  0  0  0  0
 55 56  2  0  0  0  0
M  END
$$$$
protac3895RUN2
  chem.cr 07102519423D
protac3895RUN2
 90 96  0  0  0  0  0  0  0  0999 V2000
   -1.1505   -2.3721   -2.6443 O   0  0  0  0  0  0  0  0  0  0  0  0
   -0.5635   -2.9333   -1.7312 C   0  0  0  0  0  0  0  0  0  0  0  0
    0.2878   -4.1687   -1.9370 C   0  0  0  0  0  0  0  0  0  0  0  0
    0.0833   -5.2190   -0.9147 N   0  0  0  0  0  0  0  0  0  0  0  0
    0.6316   -5.0313    0.3626 C   0  0  0  0  0  0  0  0  0  0  0  0
   -0.2521   -5.3641    1.3285 C   0  0  0  0  0  0  0  0  0  0  0  0
   -0.1686   -5.1007    2.6705 C   0  0  0  0  0  0  0  0  0  0  0  0
    0.9126   -4.5930    3.3217 C   0  0  0  0  0  0  0  0  0  0  0  0
    2.1433   -4.2909    2.7754 C   0  0  0  0  0  0  0  0  0  0  0  0
    2.4544   -2.9551    2.4479 C   0  0  0  0  0  0  0  0  0  0  0  0
    3.7038   -2.6380    1.8843 C   0  0  0  0  0  0  0  0  0  0  0  0
    4.6507   -3.6535    1.6679 C   0  0  0  0  0  0  0  0  0  0  0  0
    6.2094   -3.2574    0.9598 Cl  0  0  0  0  0  0  0  0  0  0  0  0
    4.3579   -4.9814    2.0170 C   0  0  0  0  0  0  0  0  0  0  0  0
    3.1050   -5.3029    2.5663 C   0  0  0  0  0  0  0  0  0  0  0  0
    2.7550   -6.9780    2.9920 Cl  0  0  0  0  0  0  0  0  0  0  0  0
    0.6804   -4.4147    4.6220 C   0  0  0  0  0  0  0  0  0  0  0  0
    1.3546   -3.9908    5.5476 O   0  0  0  0  0  0  0  0  0  0  0  0
   -0.6158   -4.8125    4.8680 N   0  0  0  0  0  0  0  0  0  0  0  0
   -1.1239   -5.2033    3.6349 C   0  0  0  0  0  0  0  0  0  0  0  0
   -2.3179   -5.4703    3.6395 O   0  0  0  0  0  0  0  0  0  0  0  0
   -1.3191   -5.9724    0.6427 C   0  0  0  0  0  0  0  0  0  0  0  0
   -2.3396   -6.8466    1.0746 C   0  0  0  0  0  0  0  0  0  0  0  0
   -3.2289   -7.4013    0.1291 C   0  0  0  0  0  0  0  0  0  0  0  0
   -3.0698   -7.1475   -1.2499 C   0  0  0  0  0  0  0  0  0  0  0  0
   -1.9842   -6.3751   -1.6962 C   0  0  0  0  0  0  0  0  0  0  0  0
   -1.1265   -5.8276   -0.7323 C   0  0  0  0  0  0  0  0  0  0  0  0
   -0.5135   -2.3336   -0.4583 N   0  0  0  0  0  0  0  0  0  0  0  0
   -1.2857   -1.1317   -0.0840 C   0  0  0  0  0  0  0  0  0  0  0  0
   -0.8949    0.1618   -0.8481 C   0  0  0  0  0  0  0  0  0  0  0  0
    0.2670    0.8037   -0.2700 O   0  0  0  0  0  0  0  0  0  0  0  0
    1.5301    0.1085   -0.2635 C   0  0  0  0  0  0  0  0  0  0  0  0
    2.0131   -0.1929   -1.7088 C   0  0  0  0  0  0  0  0  0  0  0  0
    3.1935    0.5741   -2.0232 O   0  0  0  0  0  0  0  0  0  0  0  0
    3.0894    2.0117   -2.1035 C   0  0  0  0  0  0  0  0  0  0  0  0
    2.1356    2.4300   -3.2473 C   0  0  0  0  0  0  0  0  0  0  0  0
    0.8197    2.7848   -2.6950 N   0  0  0  0  0  0  0  0  0  0  0  0
    0.1733    3.9594   -3.0601 C   0  0  0  0  0  0  0  0  0  0  0  0
    0.0919    4.3790   -4.4093 C   0  0  0  0  0  0  0  0  0  0  0  0
   -0.5495    5.5939   -4.7588 C   0  0  0  0  0  0  0  0  0  0  0  0
   -1.1088    6.4206   -3.7618 C   0  0  0  0  0  0  0  0  0  0  0  0
   -1.0216    5.9959   -2.4297 C   0  0  0  0  0  0  0  0  0  0  0  0
   -0.4078    4.7898   -2.0914 C   0  0  0  0  0  0  0  0  0  0  0  0
   -0.4660    4.6618   -0.7244 C   0  0  0  0  0  0  0  0  0  0  0  0
    0.0803    3.8240   -0.0185 O   0  0  0  0  0  0  0  0  0  0  0  0
   -1.1143    5.7804   -0.1885 N   0  0  0  0  0  0  0  0  0  0  0  0
   -1.0975    6.1420    1.2482 C   0  0  0  0  0  0  0  0  0  0  0  0
   -2.4707    5.8799    1.9129 C   0  0  0  0  0  0  0  0  0  0  0  0
   -3.3893    7.1182    1.8251 C   0  0  0  0  0  0  0  0  0  0  0  0
   -2.7074    8.3462    2.3797 C   0  0  0  0  0  0  0  0  0  0  0  0
   -3.2648    9.1646    3.0970 O   0  0  0  0  0  0  0  0  0  0  0  0
   -1.3313    8.4965    2.1785 N   0  0  0  0  0  0  0  0  0  0  0  0
   -0.5485    7.5428    1.5072 C   0  0  0  0  0  0  0  0  0  0  0  0
    0.6337    7.8288    1.3675 O   0  0  0  0  0  0  0  0  0  0  0  0
   -1.4439    6.6090   -1.2710 C   0  0  0  0  0  0  0  0  0  0  0  0
   -2.0224    7.6831   -1.1506 O   0  0  0  0  0  0  0  0  0  0  0  0
    0.0466   -4.5903   -2.9206 H   0  0  0  0  0  0  0  0  0  0  0  0
    1.3439   -3.8746   -1.9573 H   0  0  0  0  0  0  0  0  0  0  0  0
    1.5932   -4.5334    0.4261 H   0  0  0  0  0  0  0  0  0  0  0  0
    1.7317   -2.1668    2.6456 H   0  0  0  0  0  0  0  0  0  0  0  0
    3.9464   -1.6097    1.6276 H   0  0  0  0  0  0  0  0  0  0  0  0
    5.0973   -5.7613    1.8561 H   0  0  0  0  0  0  0  0  0  0  0  0
   -1.1162   -4.7526    5.7412 H   0  0  0  0  0  0  0  0  0  0  0  0
   -2.4302   -7.1671    2.1026 H   0  0  0  0  0  0  0  0  0  0  0  0
   -4.0256   -8.0589    0.4667 H   0  0  0  0  0  0  0  0  0  0  0  0
   -3.7511   -7.5976   -1.9672 H   0  0  0  0  0  0  0  0  0  0  0  0
   -1.8022   -6.2411   -2.7555 H   0  0  0  0  0  0  0  0  0  0  0  0
   -0.1694   -2.9202    0.2937 H   0  0  0  0  0  0  0  0  0  0  0  0
   -1.1845   -0.9534    0.9951 H   0  0  0  0  0  0  0  0  0  0  0  0
   -2.3466   -1.3405   -0.2755 H   0  0  0  0  0  0  0  0  0  0  0  0
   -1.7405    0.8587   -0.7782 H   0  0  0  0  0  0  0  0  0  0  0  0
   -0.7597   -0.0456   -1.9153 H   0  0  0  0  0  0  0  0  0  0  0  0
    1.4481   -0.8235    0.3018 H   0  0  0  0  0  0  0  0  0  0  0  0
    2.2782    0.7199    0.2561 H   0  0  0  0  0  0  0  0  0  0  0  0
    1.2289   -0.0082   -2.4505 H   0  0  0  0  0  0  0  0  0  0  0  0
    2.2588   -1.2588   -1.7684 H   0  0  0  0  0  0  0  0  0  0  0  0
    2.7660    2.4534   -1.1529 H   0  0  0  0  0  0  0  0  0  0  0  0
    4.0831    2.4245   -2.3256 H   0  0  0  0  0  0  0  0  0  0  0  0
    2.5676    3.3072   -3.7480 H   0  0  0  0  0  0  0  0  0  0  0  0
    2.0487    1.6263   -3.9899 H   0  0  0  0  0  0  0  0  0  0  0  0
    0.6454    2.4875   -1.7382 H   0  0  0  0  0  0  0  0  0  0  0  0
    0.5132    3.7571   -5.1939 H   0  0  0  0  0  0  0  0  0  0  0  0
   -0.6060    5.8949   -5.8025 H   0  0  0  0  0  0  0  0  0  0  0  0
   -1.5922    7.3629   -4.0102 H   0  0  0  0  0  0  0  0  0  0  0  0
   -0.3821    5.4612    1.7298 H   0  0  0  0  0  0  0  0  0  0  0  0
   -2.3084    5.6365    2.9727 H   0  0  0  0  0  0  0  0  0  0  0  0
   -2.9519    5.0057    1.4539 H   0  0  0  0  0  0  0  0  0  0  0  0
   -3.6856    7.3094    0.7865 H   0  0  0  0  0  0  0  0  0  0  0  0
   -4.3145    6.9367    2.3842 H   0  0  0  0  0  0  0  0  0  0  0  0
   -0.8844    9.3361    2.5158 H   0  0  0  0  0  0  0  0  0  0  0  0
  1  2  2  0  0  0  0
  2  3  1  0  0  0  0
  2 28  1  0  0  0  0
  3  4  1  0  0  0  0
  3 57  1  0  0  0  0
  3 58  1  0  0  0  0
  4  5  1  0  0  0  0
  4 27  1  0  0  0  0
  5  6  2  0  0  0  0
  5 59  1  0  0  0  0
  6  7  1  0  0  0  0
  6 22  1  0  0  0  0
  7  8  2  0  0  0  0
  7 20  1  0  0  0  0
  8  9  1  0  0  0  0
  8 17  1  0  0  0  0
  9 10  2  0  0  0  0
  9 15  1  0  0  0  0
 10 11  1  0  0  0  0
 10 60  1  0  0  0  0
 11 12  2  0  0  0  0
 11 61  1  0  0  0  0
 12 13  1  0  0  0  0
 12 14  1  0  0  0  0
 14 15  2  0  0  0  0
 14 62  1  0  0  0  0
 15 16  1  0  0  0  0
 17 18  2  0  0  0  0
 17 19  1  0  0  0  0
 19 20  1  0  0  0  0
 19 63  1  0  0  0  0
 20 21  2  0  0  0  0
 22 23  2  0  0  0  0
 22 27  1  0  0  0  0
 23 24  1  0  0  0  0
 23 64  1  0  0  0  0
 24 25  2  0  0  0  0
 24 65  1  0  0  0  0
 25 26  1  0  0  0  0
 25 66  1  0  0  0  0
 26 27  2  0  0  0  0
 26 67  1  0  0  0  0
 28 29  1  0  0  0  0
 28 68  1  0  0  0  0
 29 30  1  0  0  0  0
 29 69  1  0  0  0  0
 29 70  1  0  0  0  0
 30 31  1  0  0  0  0
 30 71  1  0  0  0  0
 30 72  1  0  0  0  0
 31 32  1  0  0  0  0
 32 33  1  0  0  0  0
 32 73  1  0  0  0  0
 32 74  1  0  0  0  0
 33 34  1  0  0  0  0
 33 75  1  0  0  0  0
 33 76  1  0  0  0  0
 34 35  1  0  0  0  0
 35 36  1  0  0  0  0
 35 77  1  0  0  0  0
 35 78  1  0  0  0  0
 36 37  1  0  0  0  0
 36 79  1  0  0  0  0
 36 80  1  0  0  0  0
 37 38  1  0  0  0  0
 37 81  1  0  0  0  0
 38 39  2  0  0  0  0
 38 43  1  0  0  0  0
 39 40  1  0  0  0  0
 39 82  1  0  0  0  0
 40 41  2  0  0  0  0
 40 83  1  0  0  0  0
 41 42  1  0  0  0  0
 41 84  1  0  0  0  0
 42 43  2  0  0  0  0
 42 55  1  0  0  0  0
 43 44  1  0  0  0  0
 44 45  2  0  0  0  0
 44 46  1  0  0  0  0
 46 47  1  0  0  0  0
 46 55  1  0  0  0  0
 47 48  1  0  0  0  0
 47 53  1  0  0  0  0
 47 85  1  0  0  0  0
 48 49  1  0  0  0  0
 48 86  1  0  0  0  0
 48 87  1  0  0  0  0
 49 50  1  0  0  0  0
 49 88  1  0  0  0  0
 49 89  1  0  0  0  0
 50 51  2  0  0  0  0
 50 52  1  0  0  0  0
 52 53  1  0  0  0  0
 52 90  1  0  0  0  0
 53 54  2  0  0  0  0
 55 56  2  0  0  0  0
M  END
$$$$
protac3895RUN2
  chem.cr 07102519423D
protac3895RUN2
 90 96  0  0  0  0  0  0  0  0999 V2000
   -5.0468    1.9010    1.4029 O   0  0  0  0  0  0  0  0  0  0  0  0
   -3.9277    1.4296    1.5446 C   0  0  0  0  0  0  0  0  0  0  0  0
   -3.6110   -0.0271    1.3235 C   0  0  0  0  0  0  0  0  0  0  0  0
   -2.7095   -0.5942    2.3399 N   0  0  0  0  0  0  0  0  0  0  0  0
   -2.9893   -0.5763    3.7058 C   0  0  0  0  0  0  0  0  0  0  0  0
   -1.9514   -1.0877    4.4035 C   0  0  0  0  0  0  0  0  0  0  0  0
   -1.9141   -1.3754    5.7402 C   0  0  0  0  0  0  0  0  0  0  0  0
   -2.7921   -0.9428    6.6765 C   0  0  0  0  0  0  0  0  0  0  0  0
   -3.8251   -0.0421    6.4822 C   0  0  0  0  0  0  0  0  0  0  0  0
   -5.1610   -0.4732    6.5977 C   0  0  0  0  0  0  0  0  0  0  0  0
   -6.2197    0.4282    6.3864 C   0  0  0  0  0  0  0  0  0  0  0  0
   -5.9468    1.7671    6.0646 C   0  0  0  0  0  0  0  0  0  0  0  0
   -7.2691    2.8961    5.8024 Cl  0  0  0  0  0  0  0  0  0  0  0  0
   -4.6205    2.2108    5.9636 C   0  0  0  0  0  0  0  0  0  0  0  0
   -3.5600    1.3152    6.1773 C   0  0  0  0  0  0  0  0  0  0  0  0
   -1.9075    1.9241    6.0569 Cl  0  0  0  0  0  0  0  0  0  0  0  0
   -2.5219   -1.4498    7.8799 C   0  0  0  0  0  0  0  0  0  0  0  0
   -3.0480   -1.3381    8.9783 O   0  0  0  0  0  0  0  0  0  0  0  0
   -1.3924   -2.2384    7.7683 N   0  0  0  0  0  0  0  0  0  0  0  0
   -1.0630   -2.1911    6.4147 C   0  0  0  0  0  0  0  0  0  0  0  0
   -0.1699   -2.9558    6.0785 O   0  0  0  0  0  0  0  0  0  0  0  0
   -0.9389   -1.3138    3.4501 C   0  0  0  0  0  0  0  0  0  0  0  0
    0.4493   -1.5229    3.5959 C   0  0  0  0  0  0  0  0  0  0  0  0
    1.2663   -1.5891    2.4455 C   0  0  0  0  0  0  0  0  0  0  0  0
    0.7240   -1.3868    1.1581 C   0  0  0  0  0  0  0  0  0  0  0  0
   -0.6379   -1.0710    1.0122 C   0  0  0  0  0  0  0  0  0  0  0  0
   -1.4269   -1.0297    2.1702 C   0  0  0  0  0  0  0  0  0  0  0  0
   -2.8461    2.2800    1.8168 N   0  0  0  0  0  0  0  0  0  0  0  0
   -2.8737    3.7295    1.5698 C   0  0  0  0  0  0  0  0  0  0  0  0
   -1.8863    4.1228    0.4558 C   0  0  0  0  0  0  0  0  0  0  0  0
   -0.8137    4.8591    1.0586 O   0  0  0  0  0  0  0  0  0  0  0  0
    0.1784    5.3708    0.1499 C   0  0  0  0  0  0  0  0  0  0  0  0
    1.2896    4.3236   -0.0748 C   0  0  0  0  0  0  0  0  0  0  0  0
    0.8072    3.2858   -0.9399 O   0  0  0  0  0  0  0  0  0  0  0  0
    1.8315    2.5296   -1.5934 C   0  0  0  0  0  0  0  0  0  0  0  0
    1.1777    1.2462   -2.1326 C   0  0  0  0  0  0  0  0  0  0  0  0
    2.0436    0.5821   -3.1219 N   0  0  0  0  0  0  0  0  0  0  0  0
    2.9828   -0.4013   -2.8321 C   0  0  0  0  0  0  0  0  0  0  0  0
    3.5935   -0.5375   -1.5629 C   0  0  0  0  0  0  0  0  0  0  0  0
    4.5395   -1.5621   -1.3136 C   0  0  0  0  0  0  0  0  0  0  0  0
    4.8827   -2.4826   -2.3239 C   0  0  0  0  0  0  0  0  0  0  0  0
    4.2678   -2.3404   -3.5716 C   0  0  0  0  0  0  0  0  0  0  0  0
    3.3504   -1.3228   -3.8224 C   0  0  0  0  0  0  0  0  0  0  0  0
    2.9081   -1.4506   -5.1205 C   0  0  0  0  0  0  0  0  0  0  0  0
    2.4605   -0.5485   -5.8177 O   0  0  0  0  0  0  0  0  0  0  0  0
    3.5483   -2.5672   -5.6905 N   0  0  0  0  0  0  0  0  0  0  0  0
    3.0637   -3.3496   -6.8552 C   0  0  0  0  0  0  0  0  0  0  0  0
    4.1579   -3.4554   -7.9391 C   0  0  0  0  0  0  0  0  0  0  0  0
    4.3265   -2.0864   -8.6339 C   0  0  0  0  0  0  0  0  0  0  0  0
    3.0124   -1.5440   -9.1536 C   0  0  0  0  0  0  0  0  0  0  0  0
    2.9292   -0.8166  -10.1307 O   0  0  0  0  0  0  0  0  0  0  0  0
    1.8106   -1.9750   -8.5752 N   0  0  0  0  0  0  0  0  0  0  0  0
    1.7622   -2.8276   -7.4591 C   0  0  0  0  0  0  0  0  0  0  0  0
    0.6548   -3.2132   -7.1089 O   0  0  0  0  0  0  0  0  0  0  0  0
    4.3978   -3.0963   -4.7101 C   0  0  0  0  0  0  0  0  0  0  0  0
    4.9342   -4.1929   -4.8254 O   0  0  0  0  0  0  0  0  0  0  0  0
   -4.5490   -0.5950    1.3379 H   0  0  0  0  0  0  0  0  0  0  0  0
   -3.1741   -0.1479    0.3276 H   0  0  0  0  0  0  0  0  0  0  0  0
   -3.9836   -0.2794    4.0253 H   0  0  0  0  0  0  0  0  0  0  0  0
   -5.3734   -1.5089    6.8505 H   0  0  0  0  0  0  0  0  0  0  0  0
   -7.2487    0.0905    6.4762 H   0  0  0  0  0  0  0  0  0  0  0  0
   -4.4136    3.2503    5.7252 H   0  0  0  0  0  0  0  0  0  0  0  0
   -1.1966   -3.0286    8.3633 H   0  0  0  0  0  0  0  0  0  0  0  0
    0.9221   -1.5786    4.5674 H   0  0  0  0  0  0  0  0  0  0  0  0
    2.3314   -1.7702    2.5574 H   0  0  0  0  0  0  0  0  0  0  0  0
    1.3675   -1.4374    0.2846 H   0  0  0  0  0  0  0  0  0  0  0  0
   -1.0538   -0.8485    0.0352 H   0  0  0  0  0  0  0  0  0  0  0  0
   -1.9682    1.8525    2.0942 H   0  0  0  0  0  0  0  0  0  0  0  0
   -2.6270    4.2621    2.4973 H   0  0  0  0  0  0  0  0  0  0  0  0
   -3.8860    4.0405    1.2765 H   0  0  0  0  0  0  0  0  0  0  0  0
   -2.4062    4.7475   -0.2818 H   0  0  0  0  0  0  0  0  0  0  0  0
   -1.5171    3.2256   -0.0580 H   0  0  0  0  0  0  0  0  0  0  0  0
    0.6422    6.2650    0.5866 H   0  0  0  0  0  0  0  0  0  0  0  0
   -0.2659    5.6657   -0.8105 H   0  0  0  0  0  0  0  0  0  0  0  0
    1.6079    3.9094    0.8918 H   0  0  0  0  0  0  0  0  0  0  0  0
    2.1488    4.8323   -0.5306 H   0  0  0  0  0  0  0  0  0  0  0  0
    2.2531    3.1094   -2.4248 H   0  0  0  0  0  0  0  0  0  0  0  0
    2.6432    2.2787   -0.8992 H   0  0  0  0  0  0  0  0  0  0  0  0
    0.9535    0.5701   -1.2975 H   0  0  0  0  0  0  0  0  0  0  0  0
    0.2214    1.5079   -2.6053 H   0  0  0  0  0  0  0  0  0  0  0  0
    1.7791    0.6476   -4.1006 H   0  0  0  0  0  0  0  0  0  0  0  0
    3.3529    0.1529   -0.7630 H   0  0  0  0  0  0  0  0  0  0  0  0
    5.0058   -1.6418   -0.3350 H   0  0  0  0  0  0  0  0  0  0  0  0
    5.6003   -3.2798   -2.1445 H   0  0  0  0  0  0  0  0  0  0  0  0
    2.8517   -4.3647   -6.4910 H   0  0  0  0  0  0  0  0  0  0  0  0
    3.8612   -4.2139   -8.6781 H   0  0  0  0  0  0  0  0  0  0  0  0
    5.1073   -3.7884   -7.5001 H   0  0  0  0  0  0  0  0  0  0  0  0
    4.7493   -1.3587   -7.9294 H   0  0  0  0  0  0  0  0  0  0  0  0
    5.0385   -2.1709   -9.4634 H   0  0  0  0  0  0  0  0  0  0  0  0
    0.9429   -1.6185   -8.9467 H   0  0  0  0  0  0  0  0  0  0  0  0
  1  2  2  0  0  0  0
  2  3  1  0  0  0  0
  2 28  1  0  0  0  0
  3  4  1  0  0  0  0
  3 57  1  0  0  0  0
  3 58  1  0  0  0  0
  4  5  1  0  0  0  0
  4 27  1  0  0  0  0
  5  6  2  0  0  0  0
  5 59  1  0  0  0  0
  6  7  1  0  0  0  0
  6 22  1  0  0  0  0
  7  8  2  0  0  0  0
  7 20  1  0  0  0  0
  8  9  1  0  0  0  0
  8 17  1  0  0  0  0
  9 10  2  0  0  0  0
  9 15  1  0  0  0  0
 10 11  1  0  0  0  0
 10 60  1  0  0  0  0
 11 12  2  0  0  0  0
 11 61  1  0  0  0  0
 12 13  1  0  0  0  0
 12 14  1  0  0  0  0
 14 15  2  0  0  0  0
 14 62  1  0  0  0  0
 15 16  1  0  0  0  0
 17 18  2  0  0  0  0
 17 19  1  0  0  0  0
 19 20  1  0  0  0  0
 19 63  1  0  0  0  0
 20 21  2  0  0  0  0
 22 23  2  0  0  0  0
 22 27  1  0  0  0  0
 23 24  1  0  0  0  0
 23 64  1  0  0  0  0
 24 25  2  0  0  0  0
 24 65  1  0  0  0  0
 25 26  1  0  0  0  0
 25 66  1  0  0  0  0
 26 27  2  0  0  0  0
 26 67  1  0  0  0  0
 28 29  1  0  0  0  0
 28 68  1  0  0  0  0
 29 30  1  0  0  0  0
 29 69  1  0  0  0  0
 29 70  1  0  0  0  0
 30 31  1  0  0  0  0
 30 71  1  0  0  0  0
 30 72  1  0  0  0  0
 31 32  1  0  0  0  0
 32 33  1  0  0  0  0
 32 73  1  0  0  0  0
 32 74  1  0  0  0  0
 33 34  1  0  0  0  0
 33 75  1  0  0  0  0
 33 76  1  0  0  0  0
 34 35  1  0  0  0  0
 35 36  1  0  0  0  0
 35 77  1  0  0  0  0
 35 78  1  0  0  0  0
 36 37  1  0  0  0  0
 36 79  1  0  0  0  0
 36 80  1  0  0  0  0
 37 38  1  0  0  0  0
 37 81  1  0  0  0  0
 38 39  2  0  0  0  0
 38 43  1  0  0  0  0
 39 40  1  0  0  0  0
 39 82  1  0  0  0  0
 40 41  2  0  0  0  0
 40 83  1  0  0  0  0
 41 42  1  0  0  0  0
 41 84  1  0  0  0  0
 42 43  2  0  0  0  0
 42 55  1  0  0  0  0
 43 44  1  0  0  0  0
 44 45  2  0  0  0  0
 44 46  1  0  0  0  0
 46 47  1  0  0  0  0
 46 55  1  0  0  0  0
 47 48  1  0  0  0  0
 47 53  1  0  0  0  0
 47 85  1  0  0  0  0
 48 49  1  0  0  0  0
 48 86  1  0  0  0  0
 48 87  1  0  0  0  0
 49 50  1  0  0  0  0
 49 88  1  0  0  0  0
 49 89  1  0  0  0  0
 50 51  2  0  0  0  0
 50 52  1  0  0  0  0
 52 53  1  0  0  0  0
 52 90  1  0  0  0  0
 53 54  2  0  0  0  0
 55 56  2  0  0  0  0
M  END
$$$$
protac3895RUN2
  chem.cr 07102519423D
protac3895RUN2
 90 96  0  0  0  0  0  0  0  0999 V2000
   -2.5454    1.3459    2.6385 O   0  0  0  0  0  0  0  0  0  0  0  0
   -1.3778    1.7004    2.6850 C   0  0  0  0  0  0  0  0  0  0  0  0
   -0.9454    3.0473    3.2402 C   0  0  0  0  0  0  0  0  0  0  0  0
   -0.4390    2.9829    4.6273 N   0  0  0  0  0  0  0  0  0  0  0  0
   -1.1595    2.2041    5.5347 C   0  0  0  0  0  0  0  0  0  0  0  0
   -0.3491    1.5202    6.3740 C   0  0  0  0  0  0  0  0  0  0  0  0
   -0.7267    0.7324    7.4374 C   0  0  0  0  0  0  0  0  0  0  0  0
   -1.9956    0.3698    7.7547 C   0  0  0  0  0  0  0  0  0  0  0  0
   -3.1476    0.7193    7.0776 C   0  0  0  0  0  0  0  0  0  0  0  0
   -3.5082    0.0277    5.9043 C   0  0  0  0  0  0  0  0  0  0  0  0
   -4.6359    0.4272    5.1650 C   0  0  0  0  0  0  0  0  0  0  0  0
   -5.4210    1.5034    5.6072 C   0  0  0  0  0  0  0  0  0  0  0  0
   -6.8231    2.0116    4.6738 Cl  0  0  0  0  0  0  0  0  0  0  0  0
   -5.0841    2.1815    6.7897 C   0  0  0  0  0  0  0  0  0  0  0  0
   -3.9476    1.7967    7.5216 C   0  0  0  0  0  0  0  0  0  0  0  0
   -3.5160    2.7112    8.9666 Cl  0  0  0  0  0  0  0  0  0  0  0  0
   -2.0453   -0.3712    8.8611 C   0  0  0  0  0  0  0  0  0  0  0  0
   -2.9617   -0.8724    9.4994 O   0  0  0  0  0  0  0  0  0  0  0  0
   -0.7557   -0.5457    9.3169 N   0  0  0  0  0  0  0  0  0  0  0  0
    0.0278    0.1980    8.4357 C   0  0  0  0  0  0  0  0  0  0  0  0
    1.1971    0.2930    8.7730 O   0  0  0  0  0  0  0  0  0  0  0  0
    0.9546    1.8397    5.9402 C   0  0  0  0  0  0  0  0  0  0  0  0
    2.2227    1.2759    6.2079 C   0  0  0  0  0  0  0  0  0  0  0  0
    3.3714    1.8164    5.5893 C   0  0  0  0  0  0  0  0  0  0  0  0
    3.2690    2.8782    4.6678 C   0  0  0  0  0  0  0  0  0  0  0  0
    2.0032    3.3673    4.3070 C   0  0  0  0  0  0  0  0  0  0  0  0
    0.8820    2.7997    4.9243 C   0  0  0  0  0  0  0  0  0  0  0  0
   -0.4595    0.9000    1.9906 N   0  0  0  0  0  0  0  0  0  0  0  0
    0.9979    0.9106    2.1911 C   0  0  0  0  0  0  0  0  0  0  0  0
    1.7278    0.2214    1.0239 C   0  0  0  0  0  0  0  0  0  0  0  0
    1.1827   -1.0947    0.8602 O   0  0  0  0  0  0  0  0  0  0  0  0
    1.7062   -1.8196   -0.2602 C   0  0  0  0  0  0  0  0  0  0  0  0
    0.9325   -3.1519   -0.3525 C   0  0  0  0  0  0  0  0  0  0  0  0
    1.4636   -3.9524   -1.4322 O   0  0  0  0  0  0  0  0  0  0  0  0
    1.2376   -3.5036   -2.7842 C   0  0  0  0  0  0  0  0  0  0  0  0
   -0.2313   -3.7662   -3.1814 C   0  0  0  0  0  0  0  0  0  0  0  0
   -0.5345   -3.0464   -4.4280 N   0  0  0  0  0  0  0  0  0  0  0  0
   -0.2208   -3.4844   -5.7094 C   0  0  0  0  0  0  0  0  0  0  0  0
   -0.1090   -4.8496   -6.0640 C   0  0  0  0  0  0  0  0  0  0  0  0
    0.2043   -5.2336   -7.3924 C   0  0  0  0  0  0  0  0  0  0  0  0
    0.4169   -4.2616   -8.3927 C   0  0  0  0  0  0  0  0  0  0  0  0
    0.3026   -2.9144   -8.0281 C   0  0  0  0  0  0  0  0  0  0  0  0
   -0.0100   -2.5386   -6.7214 C   0  0  0  0  0  0  0  0  0  0  0  0
   -0.0050   -1.1634   -6.6548 C   0  0  0  0  0  0  0  0  0  0  0  0
    0.1386   -0.4810   -5.6452 O   0  0  0  0  0  0  0  0  0  0  0  0
    0.3424   -0.6765   -7.9228 N   0  0  0  0  0  0  0  0  0  0  0  0
    0.7195    0.7139   -8.2455 C   0  0  0  0  0  0  0  0  0  0  0  0
    2.1845    0.9601   -7.8187 C   0  0  0  0  0  0  0  0  0  0  0  0
    2.5346    2.4564   -7.9440 C   0  0  0  0  0  0  0  0  0  0  0  0
    1.5722    3.3005   -7.1416 C   0  0  0  0  0  0  0  0  0  0  0  0
    1.8761    4.3629   -6.6218 O   0  0  0  0  0  0  0  0  0  0  0  0
    0.2208    2.9411   -7.1307 N   0  0  0  0  0  0  0  0  0  0  0  0
   -0.2583    1.7300   -7.6556 C   0  0  0  0  0  0  0  0  0  0  0  0
   -1.4729    1.6488   -7.7799 O   0  0  0  0  0  0  0  0  0  0  0  0
    0.4942   -1.7748   -8.7759 C   0  0  0  0  0  0  0  0  0  0  0  0
    1.0617   -1.6755   -9.8590 O   0  0  0  0  0  0  0  0  0  0  0  0
   -0.1927    3.4965    2.5864 H   0  0  0  0  0  0  0  0  0  0  0  0
   -1.8184    3.7107    3.2295 H   0  0  0  0  0  0  0  0  0  0  0  0
   -2.2409    2.2791    5.4873 H   0  0  0  0  0  0  0  0  0  0  0  0
   -2.8950   -0.7966    5.5500 H   0  0  0  0  0  0  0  0  0  0  0  0
   -4.8911   -0.0864    4.2419 H   0  0  0  0  0  0  0  0  0  0  0  0
   -5.6924    3.0145    7.1299 H   0  0  0  0  0  0  0  0  0  0  0  0
   -0.5225   -0.6686   10.2900 H   0  0  0  0  0  0  0  0  0  0  0  0
    2.3559    0.4063    6.8322 H   0  0  0  0  0  0  0  0  0  0  0  0
    4.3483    1.4000    5.8217 H   0  0  0  0  0  0  0  0  0  0  0  0
    4.1642    3.2885    4.2070 H   0  0  0  0  0  0  0  0  0  0  0  0
    1.8983    4.1434    3.5554 H   0  0  0  0  0  0  0  0  0  0  0  0
   -0.8474    0.1041    1.4965 H   0  0  0  0  0  0  0  0  0  0  0  0
    1.2397    0.4029    3.1372 H   0  0  0  0  0  0  0  0  0  0  0  0
    1.3598    1.9417    2.2556 H   0  0  0  0  0  0  0  0  0  0  0  0
    2.8045    0.1724    1.2373 H   0  0  0  0  0  0  0  0  0  0  0  0
    1.5799    0.8142    0.1105 H   0  0  0  0  0  0  0  0  0  0  0  0
    2.7770   -2.0243   -0.1287 H   0  0  0  0  0  0  0  0  0  0  0  0
    1.5707   -1.2360   -1.1784 H   0  0  0  0  0  0  0  0  0  0  0  0
   -0.1373   -2.9505   -0.4807 H   0  0  0  0  0  0  0  0  0  0  0  0
    1.0546   -3.6902    0.5964 H   0  0  0  0  0  0  0  0  0  0  0  0
    1.4723   -2.4382   -2.8975 H   0  0  0  0  0  0  0  0  0  0  0  0
    1.8912   -4.0544   -3.4751 H   0  0  0  0  0  0  0  0  0  0  0  0
   -0.3987   -4.8450   -3.2877 H   0  0  0  0  0  0  0  0  0  0  0  0
   -0.9094   -3.4074   -2.3973 H   0  0  0  0  0  0  0  0  0  0  0  0
   -0.6549   -2.0409   -4.3550 H   0  0  0  0  0  0  0  0  0  0  0  0
   -0.2757   -5.6235   -5.3230 H   0  0  0  0  0  0  0  0  0  0  0  0
    0.2834   -6.2881   -7.6440 H   0  0  0  0  0  0  0  0  0  0  0  0
    0.6673   -4.5416   -9.4129 H   0  0  0  0  0  0  0  0  0  0  0  0
    0.6575    0.8304   -9.3356 H   0  0  0  0  0  0  0  0  0  0  0  0
    2.8620    0.3442   -8.4261 H   0  0  0  0  0  0  0  0  0  0  0  0
    2.3162    0.6438   -6.7748 H   0  0  0  0  0  0  0  0  0  0  0  0
    3.5581    2.6345   -7.5895 H   0  0  0  0  0  0  0  0  0  0  0  0
    2.4997    2.7706   -8.9944 H   0  0  0  0  0  0  0  0  0  0  0  0
   -0.4405    3.5736   -6.7056 H   0  0  0  0  0  0  0  0  0  0  0  0
  1  2  2  0  0  0  0
  2  3  1  0  0  0  0
  2 28  1  0  0  0  0
  3  4  1  0  0  0  0
  3 57  1  0  0  0  0
  3 58  1  0  0  0  0
  4  5  1  0  0  0  0
  4 27  1  0  0  0  0
  5  6  2  0  0  0  0
  5 59  1  0  0  0  0
  6  7  1  0  0  0  0
  6 22  1  0  0  0  0
  7  8  2  0  0  0  0
  7 20  1  0  0  0  0
  8  9  1  0  0  0  0
  8 17  1  0  0  0  0
  9 10  2  0  0  0  0
  9 15  1  0  0  0  0
 10 11  1  0  0  0  0
 10 60  1  0  0  0  0
 11 12  2  0  0  0  0
 11 61  1  0  0  0  0
 12 13  1  0  0  0  0
 12 14  1  0  0  0  0
 14 15  2  0  0  0  0
 14 62  1  0  0  0  0
 15 16  1  0  0  0  0
 17 18  2  0  0  0  0
 17 19  1  0  0  0  0
 19 20  1  0  0  0  0
 19 63  1  0  0  0  0
 20 21  2  0  0  0  0
 22 23  2  0  0  0  0
 22 27  1  0  0  0  0
 23 24  1  0  0  0  0
 23 64  1  0  0  0  0
 24 25  2  0  0  0  0
 24 65  1  0  0  0  0
 25 26  1  0  0  0  0
 25 66  1  0  0  0  0
 26 27  2  0  0  0  0
 26 67  1  0  0  0  0
 28 29  1  0  0  0  0
 28 68  1  0  0  0  0
 29 30  1  0  0  0  0
 29 69  1  0  0  0  0
 29 70  1  0  0  0  0
 30 31  1  0  0  0  0
 30 71  1  0  0  0  0
 30 72  1  0  0  0  0
 31 32  1  0  0  0  0
 32 33  1  0  0  0  0
 32 73  1  0  0  0  0
 32 74  1  0  0  0  0
 33 34  1  0  0  0  0
 33 75  1  0  0  0  0
 33 76  1  0  0  0  0
 34 35  1  0  0  0  0
 35 36  1  0  0  0  0
 35 77  1  0  0  0  0
 35 78  1  0  0  0  0
 36 37  1  0  0  0  0
 36 79  1  0  0  0  0
 36 80  1  0  0  0  0
 37 38  1  0  0  0  0
 37 81  1  0  0  0  0
 38 39  2  0  0  0  0
 38 43  1  0  0  0  0
 39 40  1  0  0  0  0
 39 82  1  0  0  0  0
 40 41  2  0  0  0  0
 40 83  1  0  0  0  0
 41 42  1  0  0  0  0
 41 84  1  0  0  0  0
 42 43  2  0  0  0  0
 42 55  1  0  0  0  0
 43 44  1  0  0  0  0
 44 45  2  0  0  0  0
 44 46  1  0  0  0  0
 46 47  1  0  0  0  0
 46 55  1  0  0  0  0
 47 48  1  0  0  0  0
 47 53  1  0  0  0  0
 47 85  1  0  0  0  0
 48 49  1  0  0  0  0
 48 86  1  0  0  0  0
 48 87  1  0  0  0  0
 49 50  1  0  0  0  0
 49 88  1  0  0  0  0
 49 89  1  0  0  0  0
 50 51  2  0  0  0  0
 50 52  1  0  0  0  0
 52 53  1  0  0  0  0
 52 90  1  0  0  0  0
 53 54  2  0  0  0  0
 55 56  2  0  0  0  0
M  END
$$$$
protac3895RUN2
  chem.cr 07102519423D
protac3895RUN2
 90 96  0  0  0  0  0  0  0  0999 V2000
   -1.0601    2.2430    0.9298 O   0  0  0  0  0  0  0  0  0  0  0  0
    0.1403    2.2858    1.1456 C   0  0  0  0  0  0  0  0  0  0  0  0
    0.7527    3.0646    2.2878 C   0  0  0  0  0  0  0  0  0  0  0  0
    1.0546    2.2363    3.4695 N   0  0  0  0  0  0  0  0  0  0  0  0
    0.1652    1.2904    3.9750 C   0  0  0  0  0  0  0  0  0  0  0  0
    0.7531    0.5478    4.9421 C   0  0  0  0  0  0  0  0  0  0  0  0
    0.1452   -0.3428    5.7931 C   0  0  0  0  0  0  0  0  0  0  0  0
   -1.1294   -0.7986    5.7015 C   0  0  0  0  0  0  0  0  0  0  0  0
   -2.0463   -0.4897    4.7168 C   0  0  0  0  0  0  0  0  0  0  0  0
   -2.0611   -1.2368    3.5250 C   0  0  0  0  0  0  0  0  0  0  0  0
   -2.9458   -0.9006    2.4843 C   0  0  0  0  0  0  0  0  0  0  0  0
   -3.8228    0.1852    2.6352 C   0  0  0  0  0  0  0  0  0  0  0  0
   -4.9133    0.6212    1.3257 Cl  0  0  0  0  0  0  0  0  0  0  0  0
   -3.8280    0.9233    3.8295 C   0  0  0  0  0  0  0  0  0  0  0  0
   -2.9483    0.5871    4.8716 C   0  0  0  0  0  0  0  0  0  0  0  0
   -2.9428    1.5614    6.3372 Cl  0  0  0  0  0  0  0  0  0  0  0  0
   -1.4423   -1.6177    6.7058 C   0  0  0  0  0  0  0  0  0  0  0  0
   -2.4617   -2.2185    7.0136 O   0  0  0  0  0  0  0  0  0  0  0  0
   -0.3281   -1.7547    7.5108 N   0  0  0  0  0  0  0  0  0  0  0  0
    0.6207   -0.9117    6.9331 C   0  0  0  0  0  0  0  0  0  0  0  0
    1.6419   -0.7794    7.5928 O   0  0  0  0  0  0  0  0  0  0  0  0
    2.1069    0.9471    4.9281 C   0  0  0  0  0  0  0  0  0  0  0  0
    3.2744    0.3385    5.4372 C   0  0  0  0  0  0  0  0  0  0  0  0
    4.5343    0.9263    5.1822 C   0  0  0  0  0  0  0  0  0  0  0  0
    4.6495    2.0799    4.3784 C   0  0  0  0  0  0  0  0  0  0  0  0
    3.5049    2.6265    3.7733 C   0  0  0  0  0  0  0  0  0  0  0  0
    2.2694    2.0264    4.0503 C   0  0  0  0  0  0  0  0  0  0  0  0
    0.9693    1.5741    0.2694 N   0  0  0  0  0  0  0  0  0  0  0  0
    2.3580    1.1871    0.5637 C   0  0  0  0  0  0  0  0  0  0  0  0
    2.8339    0.0804   -0.4006 C   0  0  0  0  0  0  0  0  0  0  0  0
    1.8607   -0.9722   -0.3952 O   0  0  0  0  0  0  0  0  0  0  0  0
    1.8886   -1.8861    0.7130 C   0  0  0  0  0  0  0  0  0  0  0  0
    0.4425   -2.3375    1.0279 C   0  0  0  0  0  0  0  0  0  0  0  0
   -0.0673   -3.2263    0.0135 O   0  0  0  0  0  0  0  0  0  0  0  0
   -0.4463   -2.6140   -1.2262 C   0  0  0  0  0  0  0  0  0  0  0  0
   -1.2633   -3.6235   -2.0413 C   0  0  0  0  0  0  0  0  0  0  0  0
   -1.9042   -2.8959   -3.1455 N   0  0  0  0  0  0  0  0  0  0  0  0
   -1.4845   -2.9940   -4.4649 C   0  0  0  0  0  0  0  0  0  0  0  0
   -1.2227   -4.2312   -5.0927 C   0  0  0  0  0  0  0  0  0  0  0  0
   -0.8246   -4.2845   -6.4518 C   0  0  0  0  0  0  0  0  0  0  0  0
   -0.6897   -3.0996   -7.2075 C   0  0  0  0  0  0  0  0  0  0  0  0
   -0.9588   -1.8805   -6.5725 C   0  0  0  0  0  0  0  0  0  0  0  0
   -1.3400   -1.8311   -5.2314 C   0  0  0  0  0  0  0  0  0  0  0  0
   -1.4741   -0.5120   -4.8613 C   0  0  0  0  0  0  0  0  0  0  0  0
   -1.3474   -0.0633   -3.7264 O   0  0  0  0  0  0  0  0  0  0  0  0
   -1.1727    0.2709   -5.9842 N   0  0  0  0  0  0  0  0  0  0  0  0
   -1.0318    1.7402   -6.0074 C   0  0  0  0  0  0  0  0  0  0  0  0
    0.4092    2.1219   -5.5976 C   0  0  0  0  0  0  0  0  0  0  0  0
    0.5095    3.6392   -5.3427 C   0  0  0  0  0  0  0  0  0  0  0  0
   -0.4843    4.0670   -4.2901 C   0  0  0  0  0  0  0  0  0  0  0  0
   -0.2778    4.9641   -3.4861 O   0  0  0  0  0  0  0  0  0  0  0  0
   -1.7612    3.4994   -4.3194 N   0  0  0  0  0  0  0  0  0  0  0  0
   -2.1059    2.4405   -5.1734 C   0  0  0  0  0  0  0  0  0  0  0  0
   -3.3038    2.2320   -5.3069 O   0  0  0  0  0  0  0  0  0  0  0  0
   -0.8805   -0.5910   -7.0468 C   0  0  0  0  0  0  0  0  0  0  0  0
   -0.3178   -0.1956   -8.0621 O   0  0  0  0  0  0  0  0  0  0  0  0
    1.6547    3.5766    1.9417 H   0  0  0  0  0  0  0  0  0  0  0  0
    0.0399    3.8381    2.5932 H   0  0  0  0  0  0  0  0  0  0  0  0
   -0.8632    1.3395    3.6306 H   0  0  0  0  0  0  0  0  0  0  0  0
   -1.3780   -2.0737    3.4074 H   0  0  0  0  0  0  0  0  0  0  0  0
   -2.9463   -1.4727    1.5602 H   0  0  0  0  0  0  0  0  0  0  0  0
   -4.5069    1.7624    3.9410 H   0  0  0  0  0  0  0  0  0  0  0  0
   -0.3774   -1.9286    8.5028 H   0  0  0  0  0  0  0  0  0  0  0  0
    3.2530   -0.5995    5.9726 H   0  0  0  0  0  0  0  0  0  0  0  0
    5.4310    0.4667    5.5915 H   0  0  0  0  0  0  0  0  0  0  0  0
    5.6275    2.5147    4.1904 H   0  0  0  0  0  0  0  0  0  0  0  0
    3.5867    3.4721    3.0975 H   0  0  0  0  0  0  0  0  0  0  0  0
    0.4984    1.0796   -0.4809 H   0  0  0  0  0  0  0  0  0  0  0  0
    2.4300    0.8260    1.5963 H   0  0  0  0  0  0  0  0  0  0  0  0
    3.0089    2.0645    0.4606 H   0  0  0  0  0  0  0  0  0  0  0  0
    3.8249   -0.2907   -0.1099 H   0  0  0  0  0  0  0  0  0  0  0  0
    2.9121    0.4980   -1.4127 H   0  0  0  0  0  0  0  0  0  0  0  0
    2.2980   -1.4047    1.6102 H   0  0  0  0  0  0  0  0  0  0  0  0
    2.5133   -2.7587    0.4850 H   0  0  0  0  0  0  0  0  0  0  0  0
   -0.1998   -1.4542    1.1395 H   0  0  0  0  0  0  0  0  0  0  0  0
    0.4553   -2.8629    1.9916 H   0  0  0  0  0  0  0  0  0  0  0  0
   -1.0543   -1.7180   -1.0370 H   0  0  0  0  0  0  0  0  0  0  0  0
    0.4327   -2.3132   -1.8116 H   0  0  0  0  0  0  0  0  0  0  0  0
   -0.5990   -4.4137   -2.4117 H   0  0  0  0  0  0  0  0  0  0  0  0
   -2.0266   -4.0810   -1.4001 H   0  0  0  0  0  0  0  0  0  0  0  0
   -2.2449   -1.9699   -2.9058 H   0  0  0  0  0  0  0  0  0  0  0  0
   -1.3430   -5.1540   -4.5319 H   0  0  0  0  0  0  0  0  0  0  0  0
   -0.6278   -5.2445   -6.9210 H   0  0  0  0  0  0  0  0  0  0  0  0
   -0.3864   -3.1271   -8.2508 H   0  0  0  0  0  0  0  0  0  0  0  0
   -1.1896    2.0736   -7.0424 H   0  0  0  0  0  0  0  0  0  0  0  0
    1.1167    1.8077   -6.3769 H   0  0  0  0  0  0  0  0  0  0  0  0
    0.6810    1.5789   -4.6826 H   0  0  0  0  0  0  0  0  0  0  0  0
    1.5224    3.9002   -5.0139 H   0  0  0  0  0  0  0  0  0  0  0  0
    0.3198    4.1996   -6.2663 H   0  0  0  0  0  0  0  0  0  0  0  0
   -2.4591    3.8470   -3.6789 H   0  0  0  0  0  0  0  0  0  0  0  0
  1  2  2  0  0  0  0
  2  3  1  0  0  0  0
  2 28  1  0  0  0  0
  3  4  1  0  0  0  0
  3 57  1  0  0  0  0
  3 58  1  0  0  0  0
  4  5  1  0  0  0  0
  4 27  1  0  0  0  0
  5  6  2  0  0  0  0
  5 59  1  0  0  0  0
  6  7  1  0  0  0  0
  6 22  1  0  0  0  0
  7  8  2  0  0  0  0
  7 20  1  0  0  0  0
  8  9  1  0  0  0  0
  8 17  1  0  0  0  0
  9 10  2  0  0  0  0
  9 15  1  0  0  0  0
 10 11  1  0  0  0  0
 10 60  1  0  0  0  0
 11 12  2  0  0  0  0
 11 61  1  0  0  0  0
 12 13  1  0  0  0  0
 12 14  1  0  0  0  0
 14 15  2  0  0  0  0
 14 62  1  0  0  0  0
 15 16  1  0  0  0  0
 17 18  2  0  0  0  0
 17 19  1  0  0  0  0
 19 20  1  0  0  0  0
 19 63  1  0  0  0  0
 20 21  2  0  0  0  0
 22 23  2  0  0  0  0
 22 27  1  0  0  0  0
 23 24  1  0  0  0  0
 23 64  1  0  0  0  0
 24 25  2  0  0  0  0
 24 65  1  0  0  0  0
 25 26  1  0  0  0  0
 25 66  1  0  0  0  0
 26 27  2  0  0  0  0
 26 67  1  0  0  0  0
 28 29  1  0  0  0  0
 28 68  1  0  0  0  0
 29 30  1  0  0  0  0
 29 69  1  0  0  0  0
 29 70  1  0  0  0  0
 30 31  1  0  0  0  0
 30 71  1  0  0  0  0
 30 72  1  0  0  0  0
 31 32  1  0  0  0  0
 32 33  1  0  0  0  0
 32 73  1  0  0  0  0
 32 74  1  0  0  0  0
 33 34  1  0  0  0  0
 33 75  1  0  0  0  0
 33 76  1  0  0  0  0
 34 35  1  0  0  0  0
 35 36  1  0  0  0  0
 35 77  1  0  0  0  0
 35 78  1  0  0  0  0
 36 37  1  0  0  0  0
 36 79  1  0  0  0  0
 36 80  1  0  0  0  0
 37 38  1  0  0  0  0
 37 81  1  0  0  0  0
 38 39  2  0  0  0  0
 38 43  1  0  0  0  0
 39 40  1  0  0  0  0
 39 82  1  0  0  0  0
 40 41  2  0  0  0  0
 40 83  1  0  0  0  0
 41 42  1  0  0  0  0
 41 84  1  0  0  0  0
 42 43  2  0  0  0  0
 42 55  1  0  0  0  0
 43 44  1  0  0  0  0
 44 45  2  0  0  0  0
 44 46  1  0  0  0  0
 46 47  1  0  0  0  0
 46 55  1  0  0  0  0
 47 48  1  0  0  0  0
 47 53  1  0  0  0  0
 47 85  1  0  0  0  0
 48 49  1  0  0  0  0
 48 86  1  0  0  0  0
 48 87  1  0  0  0  0
 49 50  1  0  0  0  0
 49 88  1  0  0  0  0
 49 89  1  0  0  0  0
 50 51  2  0  0  0  0
 50 52  1  0  0  0  0
 52 53  1  0  0  0  0
 52 90  1  0  0  0  0
 53 54  2  0  0  0  0
 55 56  2  0  0  0  0
M  END
$$$$
protac3895RUN2
  chem.cr 07102519423D
protac3895RUN2
 90 96  0  0  0  0  0  0  0  0999 V2000
    0.4437    2.3745    3.5132 O   0  0  0  0  0  0  0  0  0  0  0  0
    1.4308    1.6619    3.5820 C   0  0  0  0  0  0  0  0  0  0  0  0
    2.4431    1.7416    4.7055 C   0  0  0  0  0  0  0  0  0  0  0  0
    2.4771    0.5631    5.5962 N   0  0  0  0  0  0  0  0  0  0  0  0
    1.2889   -0.0795    5.9612 C   0  0  0  0  0  0  0  0  0  0  0  0
    1.3316   -0.5063    7.2422 C   0  0  0  0  0  0  0  0  0  0  0  0
    0.2946   -1.0076    7.9869 C   0  0  0  0  0  0  0  0  0  0  0  0
   -0.9181   -1.3889    7.5163 C   0  0  0  0  0  0  0  0  0  0  0  0
   -1.3210   -1.4127    6.1978 C   0  0  0  0  0  0  0  0  0  0  0  0
   -1.0233   -2.5409    5.4119 C   0  0  0  0  0  0  0  0  0  0  0  0
   -1.3949   -2.5788    4.0578 C   0  0  0  0  0  0  0  0  0  0  0  0
   -2.0579   -1.4811    3.4839 C   0  0  0  0  0  0  0  0  0  0  0  0
   -2.5214   -1.5285    1.7893 Cl  0  0  0  0  0  0  0  0  0  0  0  0
   -2.3647   -0.3543    4.2632 C   0  0  0  0  0  0  0  0  0  0  0  0
   -2.0082   -0.3212    5.6208 C   0  0  0  0  0  0  0  0  0  0  0  0
   -2.3777    1.1169    6.5746 Cl  0  0  0  0  0  0  0  0  0  0  0  0
   -1.7304   -1.7875    8.4943 C   0  0  0  0  0  0  0  0  0  0  0  0
   -2.8826   -2.2013    8.5130 O   0  0  0  0  0  0  0  0  0  0  0  0
   -1.0414   -1.7005    9.6865 N   0  0  0  0  0  0  0  0  0  0  0  0
    0.1970   -1.1671    9.3313 C   0  0  0  0  0  0  0  0  0  0  0  0
    0.9007   -0.8585   10.2803 O   0  0  0  0  0  0  0  0  0  0  0  0
    2.6436   -0.2380    7.6688 C   0  0  0  0  0  0  0  0  0  0  0  0
    3.3932   -0.7041    8.7714 C   0  0  0  0  0  0  0  0  0  0  0  0
    4.7437   -0.3140    8.9054 C   0  0  0  0  0  0  0  0  0  0  0  0
    5.3752    0.4691    7.9176 C   0  0  0  0  0  0  0  0  0  0  0  0
    4.6685    0.8406    6.7614 C   0  0  0  0  0  0  0  0  0  0  0  0
    3.3216    0.4623    6.6651 C   0  0  0  0  0  0  0  0  0  0  0  0
    1.6680    0.8154    2.4907 N   0  0  0  0  0  0  0  0  0  0  0  0
    2.5751   -0.3426    2.4897 C   0  0  0  0  0  0  0  0  0  0  0  0
    3.0574   -0.6559    1.0571 C   0  0  0  0  0  0  0  0  0  0  0  0
    1.9237   -0.9780    0.2361 O   0  0  0  0  0  0  0  0  0  0  0  0
    1.4192   -2.3197    0.3378 C   0  0  0  0  0  0  0  0  0  0  0  0
    0.1758   -2.4122   -0.5637 C   0  0  0  0  0  0  0  0  0  0  0  0
    0.6076   -2.3205   -1.9290 O   0  0  0  0  0  0  0  0  0  0  0  0
   -0.2224   -1.5096   -2.7654 C   0  0  0  0  0  0  0  0  0  0  0  0
    0.3610   -1.5734   -4.1840 C   0  0  0  0  0  0  0  0  0  0  0  0
   -0.4423   -0.7455   -5.1004 N   0  0  0  0  0  0  0  0  0  0  0  0
   -1.2404   -1.2167   -6.1382 C   0  0  0  0  0  0  0  0  0  0  0  0
   -1.6660   -2.5638   -6.2466 C   0  0  0  0  0  0  0  0  0  0  0  0
   -2.4520   -2.9975   -7.3433 C   0  0  0  0  0  0  0  0  0  0  0  0
   -2.8296   -2.0939   -8.3564 C   0  0  0  0  0  0  0  0  0  0  0  0
   -2.4151   -0.7644   -8.2331 C   0  0  0  0  0  0  0  0  0  0  0  0
   -1.6536   -0.3344   -7.1465 C   0  0  0  0  0  0  0  0  0  0  0  0
   -1.4189    1.0133   -7.3091 C   0  0  0  0  0  0  0  0  0  0  0  0
   -0.7715    1.7600   -6.5850 O   0  0  0  0  0  0  0  0  0  0  0  0
   -1.9894    1.4279   -8.5222 N   0  0  0  0  0  0  0  0  0  0  0  0
   -2.2861    2.8189   -8.9321 C   0  0  0  0  0  0  0  0  0  0  0  0
   -1.0113    3.6831   -9.0412 C   0  0  0  0  0  0  0  0  0  0  0  0
   -1.3911    5.0893   -9.5601 C   0  0  0  0  0  0  0  0  0  0  0  0
   -2.5206    5.7115   -8.7635 C   0  0  0  0  0  0  0  0  0  0  0  0
   -2.7635    6.9069   -8.7818 O   0  0  0  0  0  0  0  0  0  0  0  0
   -3.4787    4.8837   -8.1622 N   0  0  0  0  0  0  0  0  0  0  0  0
   -3.3206    3.4961   -8.0447 C   0  0  0  0  0  0  0  0  0  0  0  0
   -4.2302    2.9022   -7.4809 O   0  0  0  0  0  0  0  0  0  0  0  0
   -2.6338    0.3105   -9.0625 C   0  0  0  0  0  0  0  0  0  0  0  0
   -3.0914    0.3034  -10.2005 O   0  0  0  0  0  0  0  0  0  0  0  0
    3.4402    1.8892    4.2806 H   0  0  0  0  0  0  0  0  0  0  0  0
    2.2115    2.6246    5.3147 H   0  0  0  0  0  0  0  0  0  0  0  0
    0.4649   -0.0518    5.2574 H   0  0  0  0  0  0  0  0  0  0  0  0
   -0.5075   -3.3863    5.8605 H   0  0  0  0  0  0  0  0  0  0  0  0
   -1.1727   -3.4574    3.4580 H   0  0  0  0  0  0  0  0  0  0  0  0
   -2.8753    0.4938    3.8174 H   0  0  0  0  0  0  0  0  0  0  0  0
   -1.4841   -1.5198   10.5755 H   0  0  0  0  0  0  0  0  0  0  0  0
    2.9901   -1.3962    9.4951 H   0  0  0  0  0  0  0  0  0  0  0  0
    5.3103   -0.6459    9.7724 H   0  0  0  0  0  0  0  0  0  0  0  0
    6.4202    0.7435    8.0300 H   0  0  0  0  0  0  0  0  0  0  0  0
    5.1610    1.3816    5.9600 H   0  0  0  0  0  0  0  0  0  0  0  0
    1.0528    0.9281    1.6922 H   0  0  0  0  0  0  0  0  0  0  0  0
    2.0488   -1.2094    2.9098 H   0  0  0  0  0  0  0  0  0  0  0  0
    3.4504   -0.1474    3.1211 H   0  0  0  0  0  0  0  0  0  0  0  0
    3.7801   -1.4815    1.0676 H   0  0  0  0  0  0  0  0  0  0  0  0
    3.5671    0.2290    0.6535 H   0  0  0  0  0  0  0  0  0  0  0  0
    1.1328   -2.5576    1.3694 H   0  0  0  0  0  0  0  0  0  0  0  0
    2.1700   -3.0453    0.0010 H   0  0  0  0  0  0  0  0  0  0  0  0
   -0.5154   -1.6008   -0.3005 H   0  0  0  0  0  0  0  0  0  0  0  0
   -0.3335   -3.3682   -0.3936 H   0  0  0  0  0  0  0  0  0  0  0  0
   -1.2579   -1.8747   -2.7656 H   0  0  0  0  0  0  0  0  0  0  0  0
   -0.2163   -0.4674   -2.4160 H   0  0  0  0  0  0  0  0  0  0  0  0
    1.3916   -1.1923   -4.1568 H   0  0  0  0  0  0  0  0  0  0  0  0
    0.4097   -2.6161   -4.5197 H   0  0  0  0  0  0  0  0  0  0  0  0
   -0.2615    0.2555   -5.1161 H   0  0  0  0  0  0  0  0  0  0  0  0
   -1.4046   -3.2848   -5.4808 H   0  0  0  0  0  0  0  0  0  0  0  0
   -2.7672   -4.0354   -7.4068 H   0  0  0  0  0  0  0  0  0  0  0  0
   -3.4295   -2.4113   -9.2053 H   0  0  0  0  0  0  0  0  0  0  0  0
   -2.7331    2.7673   -9.9341 H   0  0  0  0  0  0  0  0  0  0  0  0
   -0.2803    3.1994   -9.7021 H   0  0  0  0  0  0  0  0  0  0  0  0
   -0.5421    3.7791   -8.0521 H   0  0  0  0  0  0  0  0  0  0  0  0
   -0.5179    5.7525   -9.5181 H   0  0  0  0  0  0  0  0  0  0  0  0
   -1.6952    5.0356  -10.6130 H   0  0  0  0  0  0  0  0  0  0  0  0
   -4.2742    5.3149   -7.7134 H   0  0  0  0  0  0  0  0  0  0  0  0
  1  2  2  0  0  0  0
  2  3  1  0  0  0  0
  2 28  1  0  0  0  0
  3  4  1  0  0  0  0
  3 57  1  0  0  0  0
  3 58  1  0  0  0  0
  4  5  1  0  0  0  0
  4 27  1  0  0  0  0
  5  6  2  0  0  0  0
  5 59  1  0  0  0  0
  6  7  1  0  0  0  0
  6 22  1  0  0  0  0
  7  8  2  0  0  0  0
  7 20  1  0  0  0  0
  8  9  1  0  0  0  0
  8 17  1  0  0  0  0
  9 10  2  0  0  0  0
  9 15  1  0  0  0  0
 10 11  1  0  0  0  0
 10 60  1  0  0  0  0
 11 12  2  0  0  0  0
 11 61  1  0  0  0  0
 12 13  1  0  0  0  0
 12 14  1  0  0  0  0
 14 15  2  0  0  0  0
 14 62  1  0  0  0  0
 15 16  1  0  0  0  0
 17 18  2  0  0  0  0
 17 19  1  0  0  0  0
 19 20  1  0  0  0  0
 19 63  1  0  0  0  0
 20 21  2  0  0  0  0
 22 23  2  0  0  0  0
 22 27  1  0  0  0  0
 23 24  1  0  0  0  0
 23 64  1  0  0  0  0
 24 25  2  0  0  0  0
 24 65  1  0  0  0  0
 25 26  1  0  0  0  0
 25 66  1  0  0  0  0
 26 27  2  0  0  0  0
 26 67  1  0  0  0  0
 28 29  1  0  0  0  0
 28 68  1  0  0  0  0
 29 30  1  0  0  0  0
 29 69  1  0  0  0  0
 29 70  1  0  0  0  0
 30 31  1  0  0  0  0
 30 71  1  0  0  0  0
 30 72  1  0  0  0  0
 31 32  1  0  0  0  0
 32 33  1  0  0  0  0
 32 73  1  0  0  0  0
 32 74  1  0  0  0  0
 33 34  1  0  0  0  0
 33 75  1  0  0  0  0
 33 76  1  0  0  0  0
 34 35  1  0  0  0  0
 35 36  1  0  0  0  0
 35 77  1  0  0  0  0
 35 78  1  0  0  0  0
 36 37  1  0  0  0  0
 36 79  1  0  0  0  0
 36 80  1  0  0  0  0
 37 38  1  0  0  0  0
 37 81  1  0  0  0  0
 38 39  2  0  0  0  0
 38 43  1  0  0  0  0
 39 40  1  0  0  0  0
 39 82  1  0  0  0  0
 40 41  2  0  0  0  0
 40 83  1  0  0  0  0
 41 42  1  0  0  0  0
 41 84  1  0  0  0  0
 42 43  2  0  0  0  0
 42 55  1  0  0  0  0
 43 44  1  0  0  0  0
 44 45  2  0  0  0  0
 44 46  1  0  0  0  0
 46 47  1  0  0  0  0
 46 55  1  0  0  0  0
 47 48  1  0  0  0  0
 47 53  1  0  0  0  0
 47 85  1  0  0  0  0
 48 49  1  0  0  0  0
 48 86  1  0  0  0  0
 48 87  1  0  0  0  0
 49 50  1  0  0  0  0
 49 88  1  0  0  0  0
 49 89  1  0  0  0  0
 50 51  2  0  0  0  0
 50 52  1  0  0  0  0
 52 53  1  0  0  0  0
 52 90  1  0  0  0  0
 53 54  2  0  0  0  0
 55 56  2  0  0  0  0
M  END
$$$$
protac3895RUN2
  chem.cr 07102519423D
protac3895RUN2
 90 96  0  0  0  0  0  0  0  0999 V2000
   -2.2695    2.0068    3.4258 O   0  0  0  0  0  0  0  0  0  0  0  0
   -2.1571    0.7919    3.3328 C   0  0  0  0  0  0  0  0  0  0  0  0
   -1.4755   -0.0548    4.3839 C   0  0  0  0  0  0  0  0  0  0  0  0
   -1.9495   -1.4528    4.4539 N   0  0  0  0  0  0  0  0  0  0  0  0
   -3.2977   -1.7317    4.6898 C   0  0  0  0  0  0  0  0  0  0  0  0
   -3.6448   -2.9392    4.1886 C   0  0  0  0  0  0  0  0  0  0  0  0
   -4.8320   -3.6052    4.3657 C   0  0  0  0  0  0  0  0  0  0  0  0
   -5.9568   -3.1088    4.9397 C   0  0  0  0  0  0  0  0  0  0  0  0
   -6.1470   -1.8380    5.4432 C   0  0  0  0  0  0  0  0  0  0  0  0
   -6.6644   -0.8286    4.6098 C   0  0  0  0  0  0  0  0  0  0  0  0
   -6.8860    0.4637    5.1178 C   0  0  0  0  0  0  0  0  0  0  0  0
   -6.5876    0.7500    6.4600 C   0  0  0  0  0  0  0  0  0  0  0  0
   -6.8707    2.3654    7.0970 Cl  0  0  0  0  0  0  0  0  0  0  0  0
   -6.0761   -0.2534    7.2991 C   0  0  0  0  0  0  0  0  0  0  0  0
   -5.8622   -1.5477    6.7962 C   0  0  0  0  0  0  0  0  0  0  0  0
   -5.2082   -2.7865    7.8685 Cl  0  0  0  0  0  0  0  0  0  0  0  0
   -6.9284   -4.0183    5.0115 C   0  0  0  0  0  0  0  0  0  0  0  0
   -8.0630   -4.0017    5.4692 O   0  0  0  0  0  0  0  0  0  0  0  0
   -6.4659   -5.1851    4.4388 N   0  0  0  0  0  0  0  0  0  0  0  0
   -5.1441   -4.9036    4.0988 C   0  0  0  0  0  0  0  0  0  0  0  0
   -4.5073   -5.8781    3.7296 O   0  0  0  0  0  0  0  0  0  0  0  0
   -2.4998   -3.3826    3.4955 C   0  0  0  0  0  0  0  0  0  0  0  0
   -2.3042   -4.3941    2.5286 C   0  0  0  0  0  0  0  0  0  0  0  0
   -1.0288   -4.5710    1.9514 C   0  0  0  0  0  0  0  0  0  0  0  0
    0.0404   -3.7133    2.2786 C   0  0  0  0  0  0  0  0  0  0  0  0
   -0.1736   -2.6336    3.1511 C   0  0  0  0  0  0  0  0  0  0  0  0
   -1.4491   -2.4850    3.7116 C   0  0  0  0  0  0  0  0  0  0  0  0
   -2.4156    0.1761    2.1002 N   0  0  0  0  0  0  0  0  0  0  0  0
   -2.3219    0.8936    0.8205 C   0  0  0  0  0  0  0  0  0  0  0  0
   -0.8760    0.8732    0.2995 C   0  0  0  0  0  0  0  0  0  0  0  0
   -0.4954   -0.5092    0.1942 O   0  0  0  0  0  0  0  0  0  0  0  0
    0.8798   -0.7867   -0.1136 C   0  0  0  0  0  0  0  0  0  0  0  0
    1.7770   -0.3464    1.0741 C   0  0  0  0  0  0  0  0  0  0  0  0
    2.3890    0.9141    0.7659 O   0  0  0  0  0  0  0  0  0  0  0  0
    3.5088    0.8530   -0.1286 C   0  0  0  0  0  0  0  0  0  0  0  0
    3.7832    2.2876   -0.6202 C   0  0  0  0  0  0  0  0  0  0  0  0
    3.9211    2.3088   -2.0854 N   0  0  0  0  0  0  0  0  0  0  0  0
    2.8743    2.1652   -2.9927 C   0  0  0  0  0  0  0  0  0  0  0  0
    1.5103    2.1354   -2.6097 C   0  0  0  0  0  0  0  0  0  0  0  0
    0.4806    2.0040   -3.5747 C   0  0  0  0  0  0  0  0  0  0  0  0
    0.7931    1.9065   -4.9466 C   0  0  0  0  0  0  0  0  0  0  0  0
    2.1431    1.9340   -5.3117 C   0  0  0  0  0  0  0  0  0  0  0  0
    3.1528    2.0516   -4.3596 C   0  0  0  0  0  0  0  0  0  0  0  0
    4.3591    2.0516   -5.0190 C   0  0  0  0  0  0  0  0  0  0  0  0
    5.4732    1.8540   -4.5459 O   0  0  0  0  0  0  0  0  0  0  0  0
    4.1170    1.9456   -6.3954 N   0  0  0  0  0  0  0  0  0  0  0  0
    5.0239    2.4918   -7.4221 C   0  0  0  0  0  0  0  0  0  0  0  0
    6.0585    1.4138   -7.8235 C   0  0  0  0  0  0  0  0  0  0  0  0
    7.2364    2.0550   -8.5851 C   0  0  0  0  0  0  0  0  0  0  0  0
    7.8763    3.1344   -7.7459 C   0  0  0  0  0  0  0  0  0  0  0  0
    9.0710    3.3861   -7.7580 O   0  0  0  0  0  0  0  0  0  0  0  0
    7.0368    4.0000   -7.0402 N   0  0  0  0  0  0  0  0  0  0  0  0
    5.6492    3.8107   -6.9644 C   0  0  0  0  0  0  0  0  0  0  0  0
    4.9949    4.7688   -6.5751 O   0  0  0  0  0  0  0  0  0  0  0  0
    2.7294    1.8706   -6.5536 C   0  0  0  0  0  0  0  0  0  0  0  0
    2.1906    1.7895   -7.6521 O   0  0  0  0  0  0  0  0  0  0  0  0
   -0.3977   -0.0443    4.1920 H   0  0  0  0  0  0  0  0  0  0  0  0
   -1.6358    0.4155    5.3604 H   0  0  0  0  0  0  0  0  0  0  0  0
   -3.8547   -1.0243    5.2914 H   0  0  0  0  0  0  0  0  0  0  0  0
   -6.9022   -1.0536    3.5732 H   0  0  0  0  0  0  0  0  0  0  0  0
   -7.2946    1.2410    4.4764 H   0  0  0  0  0  0  0  0  0  0  0  0
   -5.8534   -0.0317    8.3394 H   0  0  0  0  0  0  0  0  0  0  0  0
   -6.7815   -6.1041    4.7103 H   0  0  0  0  0  0  0  0  0  0  0  0
   -3.1093   -5.0113    2.1608 H   0  0  0  0  0  0  0  0  0  0  0  0
   -0.8768   -5.3695    1.2305 H   0  0  0  0  0  0  0  0  0  0  0  0
    1.0158   -3.8637    1.8240 H   0  0  0  0  0  0  0  0  0  0  0  0
    0.6267   -1.9391    3.3784 H   0  0  0  0  0  0  0  0  0  0  0  0
   -2.3148   -0.8343    2.0721 H   0  0  0  0  0  0  0  0  0  0  0  0
   -2.6581    1.9321    0.9477 H   0  0  0  0  0  0  0  0  0  0  0  0
   -2.9805    0.4098    0.0880 H   0  0  0  0  0  0  0  0  0  0  0  0
   -0.2357    1.4154    1.0085 H   0  0  0  0  0  0  0  0  0  0  0  0
   -0.8197    1.3732   -0.6744 H   0  0  0  0  0  0  0  0  0  0  0  0
    1.1733   -0.2856   -1.0450 H   0  0  0  0  0  0  0  0  0  0  0  0
    1.0039   -1.8660   -0.2629 H   0  0  0  0  0  0  0  0  0  0  0  0
    2.5399   -1.1102    1.2711 H   0  0  0  0  0  0  0  0  0  0  0  0
    1.1606   -0.2525    1.9766 H   0  0  0  0  0  0  0  0  0  0  0  0
    4.3948    0.4545    0.3843 H   0  0  0  0  0  0  0  0  0  0  0  0
    3.2971    0.2007   -0.9859 H   0  0  0  0  0  0  0  0  0  0  0  0
    2.9712    2.9588   -0.3076 H   0  0  0  0  0  0  0  0  0  0  0  0
    4.7056    2.6580   -0.1550 H   0  0  0  0  0  0  0  0  0  0  0  0
    4.8552    2.3083   -2.4855 H   0  0  0  0  0  0  0  0  0  0  0  0
    1.2361    2.2241   -1.5646 H   0  0  0  0  0  0  0  0  0  0  0  0
   -0.5605    1.9923   -3.2591 H   0  0  0  0  0  0  0  0  0  0  0  0
    0.0166    1.8180   -5.7023 H   0  0  0  0  0  0  0  0  0  0  0  0
    4.4288    2.7355   -8.3136 H   0  0  0  0  0  0  0  0  0  0  0  0
    5.5724    0.6364   -8.4275 H   0  0  0  0  0  0  0  0  0  0  0  0
    6.4426    0.9208   -6.9182 H   0  0  0  0  0  0  0  0  0  0  0  0
    7.9873    1.2954   -8.8365 H   0  0  0  0  0  0  0  0  0  0  0  0
    6.8916    2.4941   -9.5300 H   0  0  0  0  0  0  0  0  0  0  0  0
    7.4396    4.8068   -6.5886 H   0  0  0  0  0  0  0  0  0  0  0  0
  1  2  2  0  0  0  0
  2  3  1  0  0  0  0
  2 28  1  0  0  0  0
  3  4  1  0  0  0  0
  3 57  1  0  0  0  0
  3 58  1  0  0  0  0
  4  5  1  0  0  0  0
  4 27  1  0  0  0  0
  5  6  2  0  0  0  0
  5 59  1  0  0  0  0
  6  7  1  0  0  0  0
  6 22  1  0  0  0  0
  7  8  2  0  0  0  0
  7 20  1  0  0  0  0
  8  9  1  0  0  0  0
  8 17  1  0  0  0  0
  9 10  2  0  0  0  0
  9 15  1  0  0  0  0
 10 11  1  0  0  0  0
 10 60  1  0  0  0  0
 11 12  2  0  0  0  0
 11 61  1  0  0  0  0
 12 13  1  0  0  0  0
 12 14  1  0  0  0  0
 14 15  2  0  0  0  0
 14 62  1  0  0  0  0
 15 16  1  0  0  0  0
 17 18  2  0  0  0  0
 17 19  1  0  0  0  0
 19 20  1  0  0  0  0
 19 63  1  0  0  0  0
 20 21  2  0  0  0  0
 22 23  2  0  0  0  0
 22 27  1  0  0  0  0
 23 24  1  0  0  0  0
 23 64  1  0  0  0  0
 24 25  2  0  0  0  0
 24 65  1  0  0  0  0
 25 26  1  0  0  0  0
 25 66  1  0  0  0  0
 26 27  2  0  0  0  0
 26 67  1  0  0  0  0
 28 29  1  0  0  0  0
 28 68  1  0  0  0  0
 29 30  1  0  0  0  0
 29 69  1  0  0  0  0
 29 70  1  0  0  0  0
 30 31  1  0  0  0  0
 30 71  1  0  0  0  0
 30 72  1  0  0  0  0
 31 32  1  0  0  0  0
 32 33  1  0  0  0  0
 32 73  1  0  0  0  0
 32 74  1  0  0  0  0
 33 34  1  0  0  0  0
 33 75  1  0  0  0  0
 33 76  1  0  0  0  0
 34 35  1  0  0  0  0
 35 36  1  0  0  0  0
 35 77  1  0  0  0  0
 35 78  1  0  0  0  0
 36 37  1  0  0  0  0
 36 79  1  0  0  0  0
 36 80  1  0  0  0  0
 37 38  1  0  0  0  0
 37 81  1  0  0  0  0
 38 39  2  0  0  0  0
 38 43  1  0  0  0  0
 39 40  1  0  0  0  0
 39 82  1  0  0  0  0
 40 41  2  0  0  0  0
 40 83  1  0  0  0  0
 41 42  1  0  0  0  0
 41 84  1  0  0  0  0
 42 43  2  0  0  0  0
 42 55  1  0  0  0  0
 43 44  1  0  0  0  0
 44 45  2  0  0  0  0
 44 46  1  0  0  0  0
 46 47  1  0  0  0  0
 46 55  1  0  0  0  0
 47 48  1  0  0  0  0
 47 53  1  0  0  0  0
 47 85  1  0  0  0  0
 48 49  1  0  0  0  0
 48 86  1  0  0  0  0
 48 87  1  0  0  0  0
 49 50  1  0  0  0  0
 49 88  1  0  0  0  0
 49 89  1  0  0  0  0
 50 51  2  0  0  0  0
 50 52  1  0  0  0  0
 52 53  1  0  0  0  0
 52 90  1  0  0  0  0
 53 54  2  0  0  0  0
 55 56  2  0  0  0  0
M  END
$$$$
protac3895RUN2
  chem.cr 07102519423D
protac3895RUN2
 90 96  0  0  0  0  0  0  0  0999 V2000
   -1.2636    3.9037    5.8716 O   0  0  0  0  0  0  0  0  0  0  0  0
   -0.9501    2.7528    5.6083 C   0  0  0  0  0  0  0  0  0  0  0  0
   -1.6416    1.5616    6.2310 C   0  0  0  0  0  0  0  0  0  0  0  0
   -2.1974    0.6123    5.2460 N   0  0  0  0  0  0  0  0  0  0  0  0
   -2.8653    1.1031    4.1229 C   0  0  0  0  0  0  0  0  0  0  0  0
   -2.6892    0.3043    3.0434 C   0  0  0  0  0  0  0  0  0  0  0  0
   -3.2820    0.4392    1.8084 C   0  0  0  0  0  0  0  0  0  0  0  0
   -4.0472    1.4832    1.3972 C   0  0  0  0  0  0  0  0  0  0  0  0
   -4.3895    2.6028    2.1290 C   0  0  0  0  0  0  0  0  0  0  0  0
   -3.4839    3.6777    2.2362 C   0  0  0  0  0  0  0  0  0  0  0  0
   -3.8173    4.8057    3.0079 C   0  0  0  0  0  0  0  0  0  0  0  0
   -5.0622    4.8738    3.6544 C   0  0  0  0  0  0  0  0  0  0  0  0
   -5.4765    6.2822    4.6210 Cl  0  0  0  0  0  0  0  0  0  0  0  0
   -5.9779    3.8165    3.5331 C   0  0  0  0  0  0  0  0  0  0  0  0
   -5.6422    2.6808    2.7770 C   0  0  0  0  0  0  0  0  0  0  0  0
   -6.7957    1.3509    2.6798 Cl  0  0  0  0  0  0  0  0  0  0  0  0
   -4.5137    1.3133    0.1609 C   0  0  0  0  0  0  0  0  0  0  0  0
   -5.2480    1.9778   -0.5585 O   0  0  0  0  0  0  0  0  0  0  0  0
   -4.0273    0.1154   -0.3202 N   0  0  0  0  0  0  0  0  0  0  0  0
   -3.3141   -0.4195    0.7511 C   0  0  0  0  0  0  0  0  0  0  0  0
   -2.9388   -1.5647    0.5605 O   0  0  0  0  0  0  0  0  0  0  0  0
   -1.8108   -0.7087    3.4926 C   0  0  0  0  0  0  0  0  0  0  0  0
   -1.0697   -1.7133    2.8277 C   0  0  0  0  0  0  0  0  0  0  0  0
   -0.2638   -2.6009    3.5738 C   0  0  0  0  0  0  0  0  0  0  0  0
   -0.1318   -2.4637    4.9698 C   0  0  0  0  0  0  0  0  0  0  0  0
   -0.7668   -1.3968    5.6258 C   0  0  0  0  0  0  0  0  0  0  0  0
   -1.5654   -0.5350    4.8603 C   0  0  0  0  0  0  0  0  0  0  0  0
    0.3763    2.5573    5.2184 N   0  0  0  0  0  0  0  0  0  0  0  0
    0.7166    2.4760    3.7912 C   0  0  0  0  0  0  0  0  0  0  0  0
    0.8191    3.8888    3.1712 C   0  0  0  0  0  0  0  0  0  0  0  0
    1.1856    3.7489    1.7942 O   0  0  0  0  0  0  0  0  0  0  0  0
    2.5925    3.6059    1.5394 C   0  0  0  0  0  0  0  0  0  0  0  0
    2.7566    2.9667    0.1529 C   0  0  0  0  0  0  0  0  0  0  0  0
    2.4366    1.5778    0.2952 O   0  0  0  0  0  0  0  0  0  0  0  0
    2.4856    0.8193   -0.9142 C   0  0  0  0  0  0  0  0  0  0  0  0
    2.0532   -0.6110   -0.5527 C   0  0  0  0  0  0  0  0  0  0  0  0
    2.1284   -1.4833   -1.7343 N   0  0  0  0  0  0  0  0  0  0  0  0
    3.3007   -1.9341   -2.3328 C   0  0  0  0  0  0  0  0  0  0  0  0
    4.5742   -1.8476   -1.7175 C   0  0  0  0  0  0  0  0  0  0  0  0
    5.7397   -2.3056   -2.3815 C   0  0  0  0  0  0  0  0  0  0  0  0
    5.6570   -2.8560   -3.6779 C   0  0  0  0  0  0  0  0  0  0  0  0
    4.3915   -2.9426   -4.2730 C   0  0  0  0  0  0  0  0  0  0  0  0
    3.2455   -2.4962   -3.6146 C   0  0  0  0  0  0  0  0  0  0  0  0
    2.1718   -2.6843   -4.4567 C   0  0  0  0  0  0  0  0  0  0  0  0
    1.0420   -2.2202   -4.3494 O   0  0  0  0  0  0  0  0  0  0  0  0
    2.6486   -3.2043   -5.6672 N   0  0  0  0  0  0  0  0  0  0  0  0
    1.8243   -3.7706   -6.7561 C   0  0  0  0  0  0  0  0  0  0  0  0
    1.1622   -2.6401   -7.5742 C   0  0  0  0  0  0  0  0  0  0  0  0
    0.2451   -3.2426   -8.6596 C   0  0  0  0  0  0  0  0  0  0  0  0
   -0.7539   -4.2139   -8.0723 C   0  0  0  0  0  0  0  0  0  0  0  0
   -1.8154   -4.4859   -8.6132 O   0  0  0  0  0  0  0  0  0  0  0  0
   -0.3618   -5.0170   -6.9950 N   0  0  0  0  0  0  0  0  0  0  0  0
    0.8026   -4.7842   -6.2475 C   0  0  0  0  0  0  0  0  0  0  0  0
    1.0422   -5.6103   -5.3768 O   0  0  0  0  0  0  0  0  0  0  0  0
    4.0251   -3.4022   -5.5175 C   0  0  0  0  0  0  0  0  0  0  0  0
    4.7519   -3.6739   -6.4678 O   0  0  0  0  0  0  0  0  0  0  0  0
   -0.9347    1.0409    6.8838 H   0  0  0  0  0  0  0  0  0  0  0  0
   -2.4625    1.9247    6.8588 H   0  0  0  0  0  0  0  0  0  0  0  0
   -3.4732    1.9909    4.2644 H   0  0  0  0  0  0  0  0  0  0  0  0
   -2.5202    3.6277    1.7354 H   0  0  0  0  0  0  0  0  0  0  0  0
   -3.1131    5.6279    3.1038 H   0  0  0  0  0  0  0  0  0  0  0  0
   -6.9444    3.8726    4.0252 H   0  0  0  0  0  0  0  0  0  0  0  0
   -4.5141   -0.4517   -0.9971 H   0  0  0  0  0  0  0  0  0  0  0  0
   -1.0534   -1.8201    1.7571 H   0  0  0  0  0  0  0  0  0  0  0  0
    0.2705   -3.3956    3.0603 H   0  0  0  0  0  0  0  0  0  0  0  0
    0.4866   -3.1604    5.5299 H   0  0  0  0  0  0  0  0  0  0  0  0
   -0.6399   -1.2498    6.6932 H   0  0  0  0  0  0  0  0  0  0  0  0
    1.0730    2.9706    5.8255 H   0  0  0  0  0  0  0  0  0  0  0  0
   -0.0543    1.9027    3.2560 H   0  0  0  0  0  0  0  0  0  0  0  0
    1.6676    1.9386    3.6772 H   0  0  0  0  0  0  0  0  0  0  0  0
    1.5583    4.4947    3.7113 H   0  0  0  0  0  0  0  0  0  0  0  0
   -0.1536    4.3919    3.2551 H   0  0  0  0  0  0  0  0  0  0  0  0
    3.0803    2.9678    2.2861 H   0  0  0  0  0  0  0  0  0  0  0  0
    3.0812    4.5883    1.5554 H   0  0  0  0  0  0  0  0  0  0  0  0
    3.7919    3.0893   -0.1868 H   0  0  0  0  0  0  0  0  0  0  0  0
    2.0880    3.4595   -0.5660 H   0  0  0  0  0  0  0  0  0  0  0  0
    1.8004    1.2336   -1.6679 H   0  0  0  0  0  0  0  0  0  0  0  0
    3.5022    0.8162   -1.3276 H   0  0  0  0  0  0  0  0  0  0  0  0
    2.6812   -1.0010    0.2588 H   0  0  0  0  0  0  0  0  0  0  0  0
    1.0186   -0.5794   -0.1853 H   0  0  0  0  0  0  0  0  0  0  0  0
    1.2847   -1.6080   -2.2871 H   0  0  0  0  0  0  0  0  0  0  0  0
    4.6719   -1.4294   -0.7211 H   0  0  0  0  0  0  0  0  0  0  0  0
    6.7078   -2.2334   -1.8901 H   0  0  0  0  0  0  0  0  0  0  0  0
    6.5413   -3.2068   -4.2033 H   0  0  0  0  0  0  0  0  0  0  0  0
    2.4938   -4.3258   -7.4267 H   0  0  0  0  0  0  0  0  0  0  0  0
    1.9330   -1.9964   -8.0206 H   0  0  0  0  0  0  0  0  0  0  0  0
    0.5631   -2.0067   -6.9052 H   0  0  0  0  0  0  0  0  0  0  0  0
   -0.2948   -2.4421   -9.1811 H   0  0  0  0  0  0  0  0  0  0  0  0
    0.8442   -3.7618   -9.4179 H   0  0  0  0  0  0  0  0  0  0  0  0
   -0.9942   -5.7375   -6.6791 H   0  0  0  0  0  0  0  0  0  0  0  0
  1  2  2  0  0  0  0
  2  3  1  0  0  0  0
  2 28  1  0  0  0  0
  3  4  1  0  0  0  0
  3 57  1  0  0  0  0
  3 58  1  0  0  0  0
  4  5  1  0  0  0  0
  4 27  1  0  0  0  0
  5  6  2  0  0  0  0
  5 59  1  0  0  0  0
  6  7  1  0  0  0  0
  6 22  1  0  0  0  0
  7  8  2  0  0  0  0
  7 20  1  0  0  0  0
  8  9  1  0  0  0  0
  8 17  1  0  0  0  0
  9 10  2  0  0  0  0
  9 15  1  0  0  0  0
 10 11  1  0  0  0  0
 10 60  1  0  0  0  0
 11 12  2  0  0  0  0
 11 61  1  0  0  0  0
 12 13  1  0  0  0  0
 12 14  1  0  0  0  0
 14 15  2  0  0  0  0
 14 62  1  0  0  0  0
 15 16  1  0  0  0  0
 17 18  2  0  0  0  0
 17 19  1  0  0  0  0
 19 20  1  0  0  0  0
 19 63  1  0  0  0  0
 20 21  2  0  0  0  0
 22 23  2  0  0  0  0
 22 27  1  0  0  0  0
 23 24  1  0  0  0  0
 23 64  1  0  0  0  0
 24 25  2  0  0  0  0
 24 65  1  0  0  0  0
 25 26  1  0  0  0  0
 25 66  1  0  0  0  0
 26 27  2  0  0  0  0
 26 67  1  0  0  0  0
 28 29  1  0  0  0  0
 28 68  1  0  0  0  0
 29 30  1  0  0  0  0
 29 69  1  0  0  0  0
 29 70  1  0  0  0  0
 30 31  1  0  0  0  0
 30 71  1  0  0  0  0
 30 72  1  0  0  0  0
 31 32  1  0  0  0  0
 32 33  1  0  0  0  0
 32 73  1  0  0  0  0
 32 74  1  0  0  0  0
 33 34  1  0  0  0  0
 33 75  1  0  0  0  0
 33 76  1  0  0  0  0
 34 35  1  0  0  0  0
 35 36  1  0  0  0  0
 35 77  1  0  0  0  0
 35 78  1  0  0  0  0
 36 37  1  0  0  0  0
 36 79  1  0  0  0  0
 36 80  1  0  0  0  0
 37 38  1  0  0  0  0
 37 81  1  0  0  0  0
 38 39  2  0  0  0  0
 38 43  1  0  0  0  0
 39 40  1  0  0  0  0
 39 82  1  0  0  0  0
 40 41  2  0  0  0  0
 40 83  1  0  0  0  0
 41 42  1  0  0  0  0
 41 84  1  0  0  0  0
 42 43  2  0  0  0  0
 42 55  1  0  0  0  0
 43 44  1  0  0  0  0
 44 45  2  0  0  0  0
 44 46  1  0  0  0  0
 46 47  1  0  0  0  0
 46 55  1  0  0  0  0
 47 48  1  0  0  0  0
 47 53  1  0  0  0  0
 47 85  1  0  0  0  0
 48 49  1  0  0  0  0
 48 86  1  0  0  0  0
 48 87  1  0  0  0  0
 49 50  1  0  0  0  0
 49 88  1  0  0  0  0
 49 89  1  0  0  0  0
 50 51  2  0  0  0  0
 50 52  1  0  0  0  0
 52 53  1  0  0  0  0
 52 90  1  0  0  0  0
 53 54  2  0  0  0  0
 55 56  2  0  0  0  0
M  END
$$$$
protac3895RUN2
  chem.cr 07102519423D
protac3895RUN2
 90 96  0  0  0  0  0  0  0  0999 V2000
    1.1644    1.6396    4.9074 O   0  0  0  0  0  0  0  0  0  0  0  0
    0.0418    1.6525    4.4167 C   0  0  0  0  0  0  0  0  0  0  0  0
   -1.1857    1.1266    5.1282 C   0  0  0  0  0  0  0  0  0  0  0  0
   -2.1957    0.5241    4.2330 N   0  0  0  0  0  0  0  0  0  0  0  0
   -2.9838    1.3243    3.3975 C   0  0  0  0  0  0  0  0  0  0  0  0
   -3.2656    0.6894    2.2366 C   0  0  0  0  0  0  0  0  0  0  0  0
   -3.8309    1.2315    1.1066 C   0  0  0  0  0  0  0  0  0  0  0  0
   -4.3467    2.4846    0.9851 C   0  0  0  0  0  0  0  0  0  0  0  0
   -4.4047    3.4704    1.9510 C   0  0  0  0  0  0  0  0  0  0  0  0
   -3.4798    4.5316    1.8850 C   0  0  0  0  0  0  0  0  0  0  0  0
   -3.5162    5.5674    2.8318 C   0  0  0  0  0  0  0  0  0  0  0  0
   -4.4842    5.5501    3.8485 C   0  0  0  0  0  0  0  0  0  0  0  0
   -4.5404    6.8573    5.0264 Cl  0  0  0  0  0  0  0  0  0  0  0  0
   -5.4166    4.5023    3.9189 C   0  0  0  0  0  0  0  0  0  0  0  0
   -5.3826    3.4641    2.9708 C   0  0  0  0  0  0  0  0  0  0  0  0
   -6.5705    2.1653    3.0716 Cl  0  0  0  0  0  0  0  0  0  0  0  0
   -4.7927    2.7268   -0.2482 C   0  0  0  0  0  0  0  0  0  0  0  0
   -5.3184    3.6963   -0.7793 O   0  0  0  0  0  0  0  0  0  0  0  0
   -4.5512    1.6062   -1.0094 N   0  0  0  0  0  0  0  0  0  0  0  0
   -3.9527    0.7002   -0.1411 C   0  0  0  0  0  0  0  0  0  0  0  0
   -3.5863   -0.3324   -0.6808 O   0  0  0  0  0  0  0  0  0  0  0  0
   -2.7682   -0.6195    2.4138 C   0  0  0  0  0  0  0  0  0  0  0  0
   -3.0179   -1.8392    1.7435 C   0  0  0  0  0  0  0  0  0  0  0  0
   -2.3918   -3.0231    2.1901 C   0  0  0  0  0  0  0  0  0  0  0  0
   -1.5755   -3.0223    3.3402 C   0  0  0  0  0  0  0  0  0  0  0  0
   -1.4252   -1.8426    4.0881 C   0  0  0  0  0  0  0  0  0  0  0  0
   -2.0465   -0.6813    3.6118 C   0  0  0  0  0  0  0  0  0  0  0  0
   -0.1899    2.4108    3.2609 N   0  0  0  0  0  0  0  0  0  0  0  0
    0.8822    2.9285    2.4070 C   0  0  0  0  0  0  0  0  0  0  0  0
    0.3301    3.3094    1.0138 C   0  0  0  0  0  0  0  0  0  0  0  0
   -0.4872    2.2379    0.4882 O   0  0  0  0  0  0  0  0  0  0  0  0
    0.1316    0.9528    0.2429 C   0  0  0  0  0  0  0  0  0  0  0  0
    1.0877    1.0163   -0.9805 C   0  0  0  0  0  0  0  0  0  0  0  0
    2.3092    1.7132   -0.6543 O   0  0  0  0  0  0  0  0  0  0  0  0
    3.2256    1.0444    0.2276 C   0  0  0  0  0  0  0  0  0  0  0  0
    4.5393    0.8113   -0.5414 C   0  0  0  0  0  0  0  0  0  0  0  0
    4.2979   -0.0806   -1.6859 N   0  0  0  0  0  0  0  0  0  0  0  0
    5.0149   -1.2382   -1.9630 C   0  0  0  0  0  0  0  0  0  0  0  0
    6.3597   -1.4288   -1.5619 C   0  0  0  0  0  0  0  0  0  0  0  0
    7.0482   -2.6294   -1.8668 C   0  0  0  0  0  0  0  0  0  0  0  0
    6.4052   -3.6675   -2.5750 C   0  0  0  0  0  0  0  0  0  0  0  0
    5.0705   -3.4726   -2.9496 C   0  0  0  0  0  0  0  0  0  0  0  0
    4.3989   -2.2844   -2.6606 C   0  0  0  0  0  0  0  0  0  0  0  0
    3.1194   -2.3798   -3.1550 C   0  0  0  0  0  0  0  0  0  0  0  0
    2.3845   -1.4493   -3.4662 O   0  0  0  0  0  0  0  0  0  0  0  0
    2.9871   -3.6380   -3.7549 N   0  0  0  0  0  0  0  0  0  0  0  0
    1.7629   -4.1766   -4.3768 C   0  0  0  0  0  0  0  0  0  0  0  0
    1.6821   -3.6718   -5.8350 C   0  0  0  0  0  0  0  0  0  0  0  0
    0.2801   -3.9263   -6.4223 C   0  0  0  0  0  0  0  0  0  0  0  0
   -0.7795   -3.2801   -5.5636 C   0  0  0  0  0  0  0  0  0  0  0  0
   -1.8185   -2.8111   -6.0038 O   0  0  0  0  0  0  0  0  0  0  0  0
   -0.6324   -3.3376   -4.1740 N   0  0  0  0  0  0  0  0  0  0  0  0
    0.5133   -3.8593   -3.5517 C   0  0  0  0  0  0  0  0  0  0  0  0
    0.3994   -4.1362   -2.3647 O   0  0  0  0  0  0  0  0  0  0  0  0
    4.2024   -4.3113   -3.6138 C   0  0  0  0  0  0  0  0  0  0  0  0
    4.4509   -5.3477   -4.2179 O   0  0  0  0  0  0  0  0  0  0  0  0
   -0.8692    0.3766    5.8602 H   0  0  0  0  0  0  0  0  0  0  0  0
   -1.6464    1.9497    5.6843 H   0  0  0  0  0  0  0  0  0  0  0  0
   -3.1489    2.3524    3.6996 H   0  0  0  0  0  0  0  0  0  0  0  0
   -2.7439    4.5546    1.0857 H   0  0  0  0  0  0  0  0  0  0  0  0
   -2.8096    6.3911    2.7686 H   0  0  0  0  0  0  0  0  0  0  0  0
   -6.1713    4.5000    4.7001 H   0  0  0  0  0  0  0  0  0  0  0  0
   -4.9846    1.3809   -1.8913 H   0  0  0  0  0  0  0  0  0  0  0  0
   -3.7229   -1.9233    0.9304 H   0  0  0  0  0  0  0  0  0  0  0  0
   -2.5637   -3.9530    1.6536 H   0  0  0  0  0  0  0  0  0  0  0  0
   -1.1151   -3.9464    3.6793 H   0  0  0  0  0  0  0  0  0  0  0  0
   -0.8678   -1.8420    5.0208 H   0  0  0  0  0  0  0  0  0  0  0  0
   -1.0878    2.2779    2.8075 H   0  0  0  0  0  0  0  0  0  0  0  0
    1.6646    2.1672    2.3093 H   0  0  0  0  0  0  0  0  0  0  0  0
    1.3323    3.8059    2.8861 H   0  0  0  0  0  0  0  0  0  0  0  0
    1.1495    3.5637    0.3334 H   0  0  0  0  0  0  0  0  0  0  0  0
   -0.2845    4.2119    1.1148 H   0  0  0  0  0  0  0  0  0  0  0  0
   -0.6583    0.2263    0.0100 H   0  0  0  0  0  0  0  0  0  0  0  0
    0.6453    0.5681    1.1304 H   0  0  0  0  0  0  0  0  0  0  0  0
    0.5715    1.5253   -1.8039 H   0  0  0  0  0  0  0  0  0  0  0  0
    1.3111   -0.0063   -1.3109 H   0  0  0  0  0  0  0  0  0  0  0  0
    3.4343    1.6735    1.1031 H   0  0  0  0  0  0  0  0  0  0  0  0
    2.8283    0.0827    0.5818 H   0  0  0  0  0  0  0  0  0  0  0  0
    4.9343    1.7737   -0.8946 H   0  0  0  0  0  0  0  0  0  0  0  0
    5.2663    0.3715    0.1528 H   0  0  0  0  0  0  0  0  0  0  0  0
    3.3925   -0.0038   -2.1418 H   0  0  0  0  0  0  0  0  0  0  0  0
    6.8862   -0.6455   -1.0281 H   0  0  0  0  0  0  0  0  0  0  0  0
    8.0802   -2.7518   -1.5517 H   0  0  0  0  0  0  0  0  0  0  0  0
    6.9192   -4.5925   -2.8229 H   0  0  0  0  0  0  0  0  0  0  0  0
    1.8453   -5.2714   -4.3977 H   0  0  0  0  0  0  0  0  0  0  0  0
    2.4647   -4.1523   -6.4384 H   0  0  0  0  0  0  0  0  0  0  0  0
    1.8836   -2.5909   -5.8493 H   0  0  0  0  0  0  0  0  0  0  0  0
    0.2196   -3.5195   -7.4396 H   0  0  0  0  0  0  0  0  0  0  0  0
    0.0798   -5.0017   -6.4929 H   0  0  0  0  0  0  0  0  0  0  0  0
   -1.3865   -3.0001   -3.5932 H   0  0  0  0  0  0  0  0  0  0  0  0
  1  2  2  0  0  0  0
  2  3  1  0  0  0  0
  2 28  1  0  0  0  0
  3  4  1  0  0  0  0
  3 57  1  0  0  0  0
  3 58  1  0  0  0  0
  4  5  1  0  0  0  0
  4 27  1  0  0  0  0
  5  6  2  0  0  0  0
  5 59  1  0  0  0  0
  6  7  1  0  0  0  0
  6 22  1  0  0  0  0
  7  8  2  0  0  0  0
  7 20  1  0  0  0  0
  8  9  1  0  0  0  0
  8 17  1  0  0  0  0
  9 10  2  0  0  0  0
  9 15  1  0  0  0  0
 10 11  1  0  0  0  0
 10 60  1  0  0  0  0
 11 12  2  0  0  0  0
 11 61  1  0  0  0  0
 12 13  1  0  0  0  0
 12 14  1  0  0  0  0
 14 15  2  0  0  0  0
 14 62  1  0  0  0  0
 15 16  1  0  0  0  0
 17 18  2  0  0  0  0
 17 19  1  0  0  0  0
 19 20  1  0  0  0  0
 19 63  1  0  0  0  0
 20 21  2  0  0  0  0
 22 23  2  0  0  0  0
 22 27  1  0  0  0  0
 23 24  1  0  0  0  0
 23 64  1  0  0  0  0
 24 25  2  0  0  0  0
 24 65  1  0  0  0  0
 25 26  1  0  0  0  0
 25 66  1  0  0  0  0
 26 27  2  0  0  0  0
 26 67  1  0  0  0  0
 28 29  1  0  0  0  0
 28 68  1  0  0  0  0
 29 30  1  0  0  0  0
 29 69  1  0  0  0  0
 29 70  1  0  0  0  0
 30 31  1  0  0  0  0
 30 71  1  0  0  0  0
 30 72  1  0  0  0  0
 31 32  1  0  0  0  0
 32 33  1  0  0  0  0
 32 73  1  0  0  0  0
 32 74  1  0  0  0  0
 33 34  1  0  0  0  0
 33 75  1  0  0  0  0
 33 76  1  0  0  0  0
 34 35  1  0  0  0  0
 35 36  1  0  0  0  0
 35 77  1  0  0  0  0
 35 78  1  0  0  0  0
 36 37  1  0  0  0  0
 36 79  1  0  0  0  0
 36 80  1  0  0  0  0
 37 38  1  0  0  0  0
 37 81  1  0  0  0  0
 38 39  2  0  0  0  0
 38 43  1  0  0  0  0
 39 40  1  0  0  0  0
 39 82  1  0  0  0  0
 40 41  2  0  0  0  0
 40 83  1  0  0  0  0
 41 42  1  0  0  0  0
 41 84  1  0  0  0  0
 42 43  2  0  0  0  0
 42 55  1  0  0  0  0
 43 44  1  0  0  0  0
 44 45  2  0  0  0  0
 44 46  1  0  0  0  0
 46 47  1  0  0  0  0
 46 55  1  0  0  0  0
 47 48  1  0  0  0  0
 47 53  1  0  0  0  0
 47 85  1  0  0  0  0
 48 49  1  0  0  0  0
 48 86  1  0  0  0  0
 48 87  1  0  0  0  0
 49 50  1  0  0  0  0
 49 88  1  0  0  0  0
 49 89  1  0  0  0  0
 50 51  2  0  0  0  0
 50 52  1  0  0  0  0
 52 53  1  0  0  0  0
 52 90  1  0  0  0  0
 53 54  2  0  0  0  0
 55 56  2  0  0  0  0
M  END
$$$$
protac3895RUN2
  chem.cr 07102519423D
protac3895RUN2
 90 96  0  0  0  0  0  0  0  0999 V2000
   -3.8447    1.1001    3.0326 O   0  0  0  0  0  0  0  0  0  0  0  0
   -3.5615    1.2696    1.8569 C   0  0  0  0  0  0  0  0  0  0  0  0
   -4.3669    2.1751    0.9383 C   0  0  0  0  0  0  0  0  0  0  0  0
   -5.2570    1.4619   -0.0062 N   0  0  0  0  0  0  0  0  0  0  0  0
   -5.7809    0.2209    0.3829 C   0  0  0  0  0  0  0  0  0  0  0  0
   -5.6614   -0.6926   -0.6069 C   0  0  0  0  0  0  0  0  0  0  0  0
   -5.8209   -2.0499   -0.5162 C   0  0  0  0  0  0  0  0  0  0  0  0
   -6.3676   -2.7304    0.5205 C   0  0  0  0  0  0  0  0  0  0  0  0
   -6.9476   -2.1902    1.6500 C   0  0  0  0  0  0  0  0  0  0  0  0
   -8.3099   -1.8400    1.6129 C   0  0  0  0  0  0  0  0  0  0  0  0
   -8.9363   -1.3008    2.7492 C   0  0  0  0  0  0  0  0  0  0  0  0
   -8.2004   -1.1106    3.9300 C   0  0  0  0  0  0  0  0  0  0  0  0
   -8.9887   -0.4404    5.3526 Cl  0  0  0  0  0  0  0  0  0  0  0  0
   -6.8414   -1.4646    3.9774 C   0  0  0  0  0  0  0  0  0  0  0  0
   -6.2152   -2.0105    2.8438 C   0  0  0  0  0  0  0  0  0  0  0  0
   -4.5039   -2.4285    2.9234 Cl  0  0  0  0  0  0  0  0  0  0  0  0
   -6.3198   -4.0488    0.3302 C   0  0  0  0  0  0  0  0  0  0  0  0
   -6.6786   -5.0079    0.9994 O   0  0  0  0  0  0  0  0  0  0  0  0
   -5.7385   -4.2851   -0.9014 N   0  0  0  0  0  0  0  0  0  0  0  0
   -5.4050   -3.0178   -1.3739 C   0  0  0  0  0  0  0  0  0  0  0  0
   -4.7230   -3.0226   -2.3887 O   0  0  0  0  0  0  0  0  0  0  0  0
   -5.2283    0.0396   -1.7234 C   0  0  0  0  0  0  0  0  0  0  0  0
   -5.2221   -0.2583   -3.1027 C   0  0  0  0  0  0  0  0  0  0  0  0
   -4.7741    0.7172   -4.0179 C   0  0  0  0  0  0  0  0  0  0  0  0
   -4.4054    2.0067   -3.5812 C   0  0  0  0  0  0  0  0  0  0  0  0
   -4.5306    2.3483   -2.2227 C   0  0  0  0  0  0  0  0  0  0  0  0
   -4.9580    1.3529   -1.3354 C   0  0  0  0  0  0  0  0  0  0  0  0
   -2.5787    0.4194    1.3256 N   0  0  0  0  0  0  0  0  0  0  0  0
   -1.8961    0.6252    0.0380 C   0  0  0  0  0  0  0  0  0  0  0  0
   -1.1615   -0.6375   -0.4457 C   0  0  0  0  0  0  0  0  0  0  0  0
   -0.7928   -0.4681   -1.8303 O   0  0  0  0  0  0  0  0  0  0  0  0
    0.1084    0.6020   -2.1922 C   0  0  0  0  0  0  0  0  0  0  0  0
    1.5461    0.2828   -1.7346 C   0  0  0  0  0  0  0  0  0  0  0  0
    1.6593    0.5143   -0.3240 O   0  0  0  0  0  0  0  0  0  0  0  0
    2.9849    0.3646    0.1911 C   0  0  0  0  0  0  0  0  0  0  0  0
    2.8848   -0.3440    1.5551 C   0  0  0  0  0  0  0  0  0  0  0  0
    4.2404   -0.6694    2.0216 N   0  0  0  0  0  0  0  0  0  0  0  0
    5.0839    0.3570    2.4140 C   0  0  0  0  0  0  0  0  0  0  0  0
    4.7845    1.1801    3.5215 C   0  0  0  0  0  0  0  0  0  0  0  0
    5.6161    2.2753    3.8573 C   0  0  0  0  0  0  0  0  0  0  0  0
    6.7518    2.5772    3.0764 C   0  0  0  0  0  0  0  0  0  0  0  0
    7.0373    1.7501    1.9822 C   0  0  0  0  0  0  0  0  0  0  0  0
    6.2309    0.6560    1.6688 C   0  0  0  0  0  0  0  0  0  0  0  0
    6.7323    0.0698    0.5292 C   0  0  0  0  0  0  0  0  0  0  0  0
    6.1948   -0.7819   -0.1684 O   0  0  0  0  0  0  0  0  0  0  0  0
    7.8285    0.8305    0.0923 N   0  0  0  0  0  0  0  0  0  0  0  0
    8.6895    0.5981   -1.0902 C   0  0  0  0  0  0  0  0  0  0  0  0
    8.1905    1.3918   -2.3185 C   0  0  0  0  0  0  0  0  0  0  0  0
    6.9696    0.6931   -2.9593 C   0  0  0  0  0  0  0  0  0  0  0  0
    7.2324   -0.7713   -3.2388 C   0  0  0  0  0  0  0  0  0  0  0  0
    6.6969   -1.3823   -4.1520 O   0  0  0  0  0  0  0  0  0  0  0  0
    8.2399   -1.4376   -2.5270 N   0  0  0  0  0  0  0  0  0  0  0  0
    8.8933   -0.8771   -1.4176 C   0  0  0  0  0  0  0  0  0  0  0  0
    9.7663   -1.5598   -0.9004 O   0  0  0  0  0  0  0  0  0  0  0  0
    8.0281    1.8491    1.0320 C   0  0  0  0  0  0  0  0  0  0  0  0
    8.7335    2.8207    0.7860 O   0  0  0  0  0  0  0  0  0  0  0  0
   -4.9952    2.8212    1.5612 H   0  0  0  0  0  0  0  0  0  0  0  0
   -3.6804    2.8211    0.3813 H   0  0  0  0  0  0  0  0  0  0  0  0
   -6.0361    0.0980    1.4291 H   0  0  0  0  0  0  0  0  0  0  0  0
   -8.8801   -1.9948    0.7001 H   0  0  0  0  0  0  0  0  0  0  0  0
   -9.9921   -1.0440    2.7166 H   0  0  0  0  0  0  0  0  0  0  0  0
   -6.2722   -1.3175    4.8903 H   0  0  0  0  0  0  0  0  0  0  0  0
   -5.1999   -5.1114   -1.1120 H   0  0  0  0  0  0  0  0  0  0  0  0
   -5.5995   -1.1938   -3.4902 H   0  0  0  0  0  0  0  0  0  0  0  0
   -4.7424    0.4785   -5.0771 H   0  0  0  0  0  0  0  0  0  0  0  0
   -4.0770    2.7493   -4.3039 H   0  0  0  0  0  0  0  0  0  0  0  0
   -4.3283    3.3584   -1.8797 H   0  0  0  0  0  0  0  0  0  0  0  0
   -2.2641   -0.3329    1.9269 H   0  0  0  0  0  0  0  0  0  0  0  0
   -1.1801    1.4498    0.1460 H   0  0  0  0  0  0  0  0  0  0  0  0
   -2.6191    0.8943   -0.7374 H   0  0  0  0  0  0  0  0  0  0  0  0
   -1.8431   -1.4949   -0.3666 H   0  0  0  0  0  0  0  0  0  0  0  0
   -0.2908   -0.8461    0.1875 H   0  0  0  0  0  0  0  0  0  0  0  0
   -0.2128    1.5715   -1.7939 H   0  0  0  0  0  0  0  0  0  0  0  0
    0.1183    0.6943   -3.2858 H   0  0  0  0  0  0  0  0  0  0  0  0
    2.2454    0.9293   -2.2817 H   0  0  0  0  0  0  0  0  0  0  0  0
    1.7839   -0.7609   -1.9806 H   0  0  0  0  0  0  0  0  0  0  0  0
    3.6060   -0.2435   -0.4816 H   0  0  0  0  0  0  0  0  0  0  0  0
    3.4673    1.3445    0.3043 H   0  0  0  0  0  0  0  0  0  0  0  0
    2.3661    0.3050    2.2720 H   0  0  0  0  0  0  0  0  0  0  0  0
    2.2982   -1.2656    1.4409 H   0  0  0  0  0  0  0  0  0  0  0  0
    4.7170   -1.3679    1.4586 H   0  0  0  0  0  0  0  0  0  0  0  0
    3.9008    0.9736    4.1168 H   0  0  0  0  0  0  0  0  0  0  0  0
    5.3677    2.8981    4.7123 H   0  0  0  0  0  0  0  0  0  0  0  0
    7.3829    3.4330    3.3055 H   0  0  0  0  0  0  0  0  0  0  0  0
    9.6808    0.9927   -0.8319 H   0  0  0  0  0  0  0  0  0  0  0  0
    9.0016    1.4451   -3.0588 H   0  0  0  0  0  0  0  0  0  0  0  0
    7.9460    2.4241   -2.0313 H   0  0  0  0  0  0  0  0  0  0  0  0
    6.0955    0.7736   -2.3018 H   0  0  0  0  0  0  0  0  0  0  0  0
    6.7003    1.1965   -3.8962 H   0  0  0  0  0  0  0  0  0  0  0  0
    8.4286   -2.4019   -2.7560 H   0  0  0  0  0  0  0  0  0  0  0  0
  1  2  2  0  0  0  0
  2  3  1  0  0  0  0
  2 28  1  0  0  0  0
  3  4  1  0  0  0  0
  3 57  1  0  0  0  0
  3 58  1  0  0  0  0
  4  5  1  0  0  0  0
  4 27  1  0  0  0  0
  5  6  2  0  0  0  0
  5 59  1  0  0  0  0
  6  7  1  0  0  0  0
  6 22  1  0  0  0  0
  7  8  2  0  0  0  0
  7 20  1  0  0  0  0
  8  9  1  0  0  0  0
  8 17  1  0  0  0  0
  9 10  2  0  0  0  0
  9 15  1  0  0  0  0
 10 11  1  0  0  0  0
 10 60  1  0  0  0  0
 11 12  2  0  0  0  0
 11 61  1  0  0  0  0
 12 13  1  0  0  0  0
 12 14  1  0  0  0  0
 14 15  2  0  0  0  0
 14 62  1  0  0  0  0
 15 16  1  0  0  0  0
 17 18  2  0  0  0  0
 17 19  1  0  0  0  0
 19 20  1  0  0  0  0
 19 63  1  0  0  0  0
 20 21  2  0  0  0  0
 22 23  2  0  0  0  0
 22 27  1  0  0  0  0
 23 24  1  0  0  0  0
 23 64  1  0  0  0  0
 24 25  2  0  0  0  0
 24 65  1  0  0  0  0
 25 26  1  0  0  0  0
 25 66  1  0  0  0  0
 26 27  2  0  0  0  0
 26 67  1  0  0  0  0
 28 29  1  0  0  0  0
 28 68  1  0  0  0  0
 29 30  1  0  0  0  0
 29 69  1  0  0  0  0
 29 70  1  0  0  0  0
 30 31  1  0  0  0  0
 30 71  1  0  0  0  0
 30 72  1  0  0  0  0
 31 32  1  0  0  0  0
 32 33  1  0  0  0  0
 32 73  1  0  0  0  0
 32 74  1  0  0  0  0
 33 34  1  0  0  0  0
 33 75  1  0  0  0  0
 33 76  1  0  0  0  0
 34 35  1  0  0  0  0
 35 36  1  0  0  0  0
 35 77  1  0  0  0  0
 35 78  1  0  0  0  0
 36 37  1  0  0  0  0
 36 79  1  0  0  0  0
 36 80  1  0  0  0  0
 37 38  1  0  0  0  0
 37 81  1  0  0  0  0
 38 39  2  0  0  0  0
 38 43  1  0  0  0  0
 39 40  1  0  0  0  0
 39 82  1  0  0  0  0
 40 41  2  0  0  0  0
 40 83  1  0  0  0  0
 41 42  1  0  0  0  0
 41 84  1  0  0  0  0
 42 43  2  0  0  0  0
 42 55  1  0  0  0  0
 43 44  1  0  0  0  0
 44 45  2  0  0  0  0
 44 46  1  0  0  0  0
 46 47  1  0  0  0  0
 46 55  1  0  0  0  0
 47 48  1  0  0  0  0
 47 53  1  0  0  0  0
 47 85  1  0  0  0  0
 48 49  1  0  0  0  0
 48 86  1  0  0  0  0
 48 87  1  0  0  0  0
 49 50  1  0  0  0  0
 49 88  1  0  0  0  0
 49 89  1  0  0  0  0
 50 51  2  0  0  0  0
 50 52  1  0  0  0  0
 52 53  1  0  0  0  0
 52 90  1  0  0  0  0
 53 54  2  0  0  0  0
 55 56  2  0  0  0  0
M  END
$$$$
protac3895RUN2
  chem.cr 07102519423D
protac3895RUN2
 90 96  0  0  0  0  0  0  0  0999 V2000
   -3.2485    2.9948    1.5642 O   0  0  0  0  0  0  0  0  0  0  0  0
   -3.1536    2.5251    0.4421 C   0  0  0  0  0  0  0  0  0  0  0  0
   -4.1365    2.8857   -0.6530 C   0  0  0  0  0  0  0  0  0  0  0  0
   -4.6526    1.7485   -1.4412 N   0  0  0  0  0  0  0  0  0  0  0  0
   -5.0764    0.5288   -0.9001 C   0  0  0  0  0  0  0  0  0  0  0  0
   -5.3345   -0.3562   -1.8917 C   0  0  0  0  0  0  0  0  0  0  0  0
   -5.6113   -1.6899   -1.7683 C   0  0  0  0  0  0  0  0  0  0  0  0
   -5.9576   -2.3353   -0.6329 C   0  0  0  0  0  0  0  0  0  0  0  0
   -6.2018   -1.7495    0.5952 C   0  0  0  0  0  0  0  0  0  0  0  0
   -7.3464   -0.9433    0.7506 C   0  0  0  0  0  0  0  0  0  0  0  0
   -7.6225   -0.3274    1.9823 C   0  0  0  0  0  0  0  0  0  0  0  0
   -6.7582   -0.5221    3.0693 C   0  0  0  0  0  0  0  0  0  0  0  0
   -7.1157    0.2406    4.6127 Cl  0  0  0  0  0  0  0  0  0  0  0  0
   -5.6182   -1.3292    2.9265 C   0  0  0  0  0  0  0  0  0  0  0  0
   -5.3342   -1.9399    1.6921 C   0  0  0  0  0  0  0  0  0  0  0  0
   -3.8831   -2.9275    1.5395 Cl  0  0  0  0  0  0  0  0  0  0  0  0
   -6.1255   -3.6462   -0.8335 C   0  0  0  0  0  0  0  0  0  0  0  0
   -6.4485   -4.5741   -0.1095 O   0  0  0  0  0  0  0  0  0  0  0  0
   -5.9021   -3.9020   -2.1750 N   0  0  0  0  0  0  0  0  0  0  0  0
   -5.5517   -2.6670   -2.7139 C   0  0  0  0  0  0  0  0  0  0  0  0
   -5.1655   -2.7098   -3.8711 O   0  0  0  0  0  0  0  0  0  0  0  0
   -5.1966    0.3726   -3.0870 C   0  0  0  0  0  0  0  0  0  0  0  0
   -5.6667    0.1114   -4.3915 C   0  0  0  0  0  0  0  0  0  0  0  0
   -5.5017    1.0849   -5.3975 C   0  0  0  0  0  0  0  0  0  0  0  0
   -4.9358    2.3429   -5.1002 C   0  0  0  0  0  0  0  0  0  0  0  0
   -4.5761    2.6558   -3.7772 C   0  0  0  0  0  0  0  0  0  0  0  0
   -4.7332    1.6610   -2.8019 C   0  0  0  0  0  0  0  0  0  0  0  0
   -1.8531    2.2081    0.0429 N   0  0  0  0  0  0  0  0  0  0  0  0
   -1.5279    0.8940   -0.5359 C   0  0  0  0  0  0  0  0  0  0  0  0
   -0.8540   -0.0323    0.4913 C   0  0  0  0  0  0  0  0  0  0  0  0
   -1.1563   -1.3731    0.0893 O   0  0  0  0  0  0  0  0  0  0  0  0
   -0.2584   -2.4131    0.5233 C   0  0  0  0  0  0  0  0  0  0  0  0
   -0.1290   -2.4496    2.0719 C   0  0  0  0  0  0  0  0  0  0  0  0
    0.9236   -1.5827    2.5447 O   0  0  0  0  0  0  0  0  0  0  0  0
    2.2523   -1.8193    2.0409 C   0  0  0  0  0  0  0  0  0  0  0  0
    3.2369   -1.7821    3.2244 C   0  0  0  0  0  0  0  0  0  0  0  0
    4.4903   -1.1311    2.8105 N   0  0  0  0  0  0  0  0  0  0  0  0
    4.7167    0.2429    2.8299 C   0  0  0  0  0  0  0  0  0  0  0  0
    3.9573    1.1420    3.6236 C   0  0  0  0  0  0  0  0  0  0  0  0
    4.2366    2.5291    3.6235 C   0  0  0  0  0  0  0  0  0  0  0  0
    5.2781    3.0493    2.8285 C   0  0  0  0  0  0  0  0  0  0  0  0
    6.0097    2.1554    2.0432 C   0  0  0  0  0  0  0  0  0  0  0  0
    5.7346    0.7916    2.0359 C   0  0  0  0  0  0  0  0  0  0  0  0
    6.5915    0.1819    1.1444 C   0  0  0  0  0  0  0  0  0  0  0  0
    6.3848   -0.8824    0.5725 O   0  0  0  0  0  0  0  0  0  0  0  0
    7.4089    1.1801    0.5799 N   0  0  0  0  0  0  0  0  0  0  0  0
    8.6148    1.0023   -0.2647 C   0  0  0  0  0  0  0  0  0  0  0  0
    8.4798    1.7791   -1.5931 C   0  0  0  0  0  0  0  0  0  0  0  0
    7.4095    1.0970   -2.4742 C   0  0  0  0  0  0  0  0  0  0  0  0
    7.6782   -0.3848   -2.6495 C   0  0  0  0  0  0  0  0  0  0  0  0
    7.2895   -1.0253   -3.6160 O   0  0  0  0  0  0  0  0  0  0  0  0
    8.4957   -1.0536   -1.7256 N   0  0  0  0  0  0  0  0  0  0  0  0
    8.9691   -0.4497   -0.5506 C   0  0  0  0  0  0  0  0  0  0  0  0
    9.7952   -1.0797    0.0961 O   0  0  0  0  0  0  0  0  0  0  0  0
    7.0419    2.3953    1.1739 C   0  0  0  0  0  0  0  0  0  0  0  0
    7.7631    3.3848    1.1303 O   0  0  0  0  0  0  0  0  0  0  0  0
   -4.9942    3.3920   -0.1947 H   0  0  0  0  0  0  0  0  0  0  0  0
   -3.6533    3.6033   -1.3218 H   0  0  0  0  0  0  0  0  0  0  0  0
   -5.0317    0.3903    0.1758 H   0  0  0  0  0  0  0  0  0  0  0  0
   -8.0176   -0.7935   -0.0908 H   0  0  0  0  0  0  0  0  0  0  0  0
   -8.5065    0.2939    2.0975 H   0  0  0  0  0  0  0  0  0  0  0  0
   -4.9559   -1.4894    3.7722 H   0  0  0  0  0  0  0  0  0  0  0  0
   -5.5577   -4.7787   -2.5337 H   0  0  0  0  0  0  0  0  0  0  0  0
   -6.2080   -0.7914   -4.6389 H   0  0  0  0  0  0  0  0  0  0  0  0
   -5.8388    0.8750   -6.4088 H   0  0  0  0  0  0  0  0  0  0  0  0
   -4.8246    3.0878   -5.8821 H   0  0  0  0  0  0  0  0  0  0  0  0
   -4.2146    3.6474   -3.5245 H   0  0  0  0  0  0  0  0  0  0  0  0
   -1.1192    2.6750    0.5600 H   0  0  0  0  0  0  0  0  0  0  0  0
   -0.8654    1.0262   -1.3997 H   0  0  0  0  0  0  0  0  0  0  0  0
   -2.4408    0.4089   -0.9008 H   0  0  0  0  0  0  0  0  0  0  0  0
   -1.2591    0.1555    1.4950 H   0  0  0  0  0  0  0  0  0  0  0  0
    0.2291    0.1544    0.5103 H   0  0  0  0  0  0  0  0  0  0  0  0
    0.7197   -2.3028    0.0382 H   0  0  0  0  0  0  0  0  0  0  0  0
   -0.6657   -3.3795    0.2003 H   0  0  0  0  0  0  0  0  0  0  0  0
    0.0687   -3.4798    2.3958 H   0  0  0  0  0  0  0  0  0  0  0  0
   -1.0869   -2.1507    2.5182 H   0  0  0  0  0  0  0  0  0  0  0  0
    2.3423   -2.7878    1.5304 H   0  0  0  0  0  0  0  0  0  0  0  0
    2.5065   -1.0296    1.3191 H   0  0  0  0  0  0  0  0  0  0  0  0
    2.7801   -1.2696    4.0748 H   0  0  0  0  0  0  0  0  0  0  0  0
    3.4448   -2.8075    3.5553 H   0  0  0  0  0  0  0  0  0  0  0  0
    5.1155   -1.6577    2.2061 H   0  0  0  0  0  0  0  0  0  0  0  0
    3.1517    0.7832    4.2539 H   0  0  0  0  0  0  0  0  0  0  0  0
    3.6447    3.2003    4.2385 H   0  0  0  0  0  0  0  0  0  0  0  0
    5.4970    4.1146    2.8157 H   0  0  0  0  0  0  0  0  0  0  0  0
    9.4569    1.4273    0.2943 H   0  0  0  0  0  0  0  0  0  0  0  0
    9.4466    1.7651   -2.1122 H   0  0  0  0  0  0  0  0  0  0  0  0
    8.2292    2.8320   -1.4199 H   0  0  0  0  0  0  0  0  0  0  0  0
    6.4164    1.2209   -2.0214 H   0  0  0  0  0  0  0  0  0  0  0  0
    7.3660    1.5844   -3.4581 H   0  0  0  0  0  0  0  0  0  0  0  0
    8.7050   -2.0264   -1.8833 H   0  0  0  0  0  0  0  0  0  0  0  0
  1  2  2  0  0  0  0
  2  3  1  0  0  0  0
  2 28  1  0  0  0  0
  3  4  1  0  0  0  0
  3 57  1  0  0  0  0
  3 58  1  0  0  0  0
  4  5  1  0  0  0  0
  4 27  1  0  0  0  0
  5  6  2  0  0  0  0
  5 59  1  0  0  0  0
  6  7  1  0  0  0  0
  6 22  1  0  0  0  0
  7  8  2  0  0  0  0
  7 20  1  0  0  0  0
  8  9  1  0  0  0  0
  8 17  1  0  0  0  0
  9 10  2  0  0  0  0
  9 15  1  0  0  0  0
 10 11  1  0  0  0  0
 10 60  1  0  0  0  0
 11 12  2  0  0  0  0
 11 61  1  0  0  0  0
 12 13  1  0  0  0  0
 12 14  1  0  0  0  0
 14 15  2  0  0  0  0
 14 62  1  0  0  0  0
 15 16  1  0  0  0  0
 17 18  2  0  0  0  0
 17 19  1  0  0  0  0
 19 20  1  0  0  0  0
 19 63  1  0  0  0  0
 20 21  2  0  0  0  0
 22 23  2  0  0  0  0
 22 27  1  0  0  0  0
 23 24  1  0  0  0  0
 23 64  1  0  0  0  0
 24 25  2  0  0  0  0
 24 65  1  0  0  0  0
 25 26  1  0  0  0  0
 25 66  1  0  0  0  0
 26 27  2  0  0  0  0
 26 67  1  0  0  0  0
 28 29  1  0  0  0  0
 28 68  1  0  0  0  0
 29 30  1  0  0  0  0
 29 69  1  0  0  0  0
 29 70  1  0  0  0  0
 30 31  1  0  0  0  0
 30 71  1  0  0  0  0
 30 72  1  0  0  0  0
 31 32  1  0  0  0  0
 32 33  1  0  0  0  0
 32 73  1  0  0  0  0
 32 74  1  0  0  0  0
 33 34  1  0  0  0  0
 33 75  1  0  0  0  0
 33 76  1  0  0  0  0
 34 35  1  0  0  0  0
 35 36  1  0  0  0  0
 35 77  1  0  0  0  0
 35 78  1  0  0  0  0
 36 37  1  0  0  0  0
 36 79  1  0  0  0  0
 36 80  1  0  0  0  0
 37 38  1  0  0  0  0
 37 81  1  0  0  0  0
 38 39  2  0  0  0  0
 38 43  1  0  0  0  0
 39 40  1  0  0  0  0
 39 82  1  0  0  0  0
 40 41  2  0  0  0  0
 40 83  1  0  0  0  0
 41 42  1  0  0  0  0
 41 84  1  0  0  0  0
 42 43  2  0  0  0  0
 42 55  1  0  0  0  0
 43 44  1  0  0  0  0
 44 45  2  0  0  0  0
 44 46  1  0  0  0  0
 46 47  1  0  0  0  0
 46 55  1  0  0  0  0
 47 48  1  0  0  0  0
 47 53  1  0  0  0  0
 47 85  1  0  0  0  0
 48 49  1  0  0  0  0
 48 86  1  0  0  0  0
 48 87  1  0  0  0  0
 49 50  1  0  0  0  0
 49 88  1  0  0  0  0
 49 89  1  0  0  0  0
 50 51  2  0  0  0  0
 50 52  1  0  0  0  0
 52 53  1  0  0  0  0
 52 90  1  0  0  0  0
 53 54  2  0  0  0  0
 55 56  2  0  0  0  0
M  END
$$$$
protac3895RUN2
  chem.cr 07102519423D
protac3895RUN2
 90 96  0  0  0  0  0  0  0  0999 V2000
    0.1562    0.9837    0.3976 O   0  0  0  0  0  0  0  0  0  0  0  0
    0.6662    1.3844   -0.6390 C   0  0  0  0  0  0  0  0  0  0  0  0
    0.1529    0.9646   -1.9965 C   0  0  0  0  0  0  0  0  0  0  0  0
    0.4905    1.8787   -3.1045 N   0  0  0  0  0  0  0  0  0  0  0  0
   -0.5031    2.6336   -3.7374 C   0  0  0  0  0  0  0  0  0  0  0  0
   -0.2369    2.7941   -5.0555 C   0  0  0  0  0  0  0  0  0  0  0  0
   -1.0621    3.3238   -6.0147 C   0  0  0  0  0  0  0  0  0  0  0  0
   -2.2367    3.9691   -5.8007 C   0  0  0  0  0  0  0  0  0  0  0  0
   -2.8053    4.2655   -4.5794 C   0  0  0  0  0  0  0  0  0  0  0  0
   -2.3400    5.3843   -3.8638 C   0  0  0  0  0  0  0  0  0  0  0  0
   -2.8823    5.6979   -2.6068 C   0  0  0  0  0  0  0  0  0  0  0  0
   -3.8875    4.8877   -2.0549 C   0  0  0  0  0  0  0  0  0  0  0  0
   -4.5345    5.2581   -0.4624 Cl  0  0  0  0  0  0  0  0  0  0  0  0
   -4.3752    3.7821   -2.7717 C   0  0  0  0  0  0  0  0  0  0  0  0
   -3.8430    3.4741   -4.0355 C   0  0  0  0  0  0  0  0  0  0  0  0
   -4.4664    2.0725   -4.9050 Cl  0  0  0  0  0  0  0  0  0  0  0  0
   -2.8280    4.3237   -6.9391 C   0  0  0  0  0  0  0  0  0  0  0  0
   -3.8759    4.9018   -7.1972 O   0  0  0  0  0  0  0  0  0  0  0  0
   -2.0283    3.9156   -7.9881 N   0  0  0  0  0  0  0  0  0  0  0  0
   -0.9589    3.2709   -7.3706 C   0  0  0  0  0  0  0  0  0  0  0  0
   -0.2064    2.7071   -8.1505 O   0  0  0  0  0  0  0  0  0  0  0  0
    1.0377    2.2232   -5.2343 C   0  0  0  0  0  0  0  0  0  0  0  0
    1.9896    2.3440   -6.2705 C   0  0  0  0  0  0  0  0  0  0  0  0
    3.2504    1.7238   -6.1352 C   0  0  0  0  0  0  0  0  0  0  0  0
    3.5972    1.0371   -4.9529 C   0  0  0  0  0  0  0  0  0  0  0  0
    2.6985    1.0036   -3.8729 C   0  0  0  0  0  0  0  0  0  0  0  0
    1.4483    1.6166   -4.0425 C   0  0  0  0  0  0  0  0  0  0  0  0
    1.9993    1.8217   -0.5909 N   0  0  0  0  0  0  0  0  0  0  0  0
    2.9873    1.2038    0.3103 C   0  0  0  0  0  0  0  0  0  0  0  0
    2.9700    1.8082    1.7237 C   0  0  0  0  0  0  0  0  0  0  0  0
    3.9411    1.0903    2.5060 O   0  0  0  0  0  0  0  0  0  0  0  0
    3.7583    1.1526    3.9333 C   0  0  0  0  0  0  0  0  0  0  0  0
    2.6445    0.1556    4.3506 C   0  0  0  0  0  0  0  0  0  0  0  0
    3.2187   -1.0943    4.7905 O   0  0  0  0  0  0  0  0  0  0  0  0
    4.0635   -1.8345    3.8832 C   0  0  0  0  0  0  0  0  0  0  0  0
    3.3064   -2.1858    2.5842 C   0  0  0  0  0  0  0  0  0  0  0  0
    2.0048   -2.8039    2.8657 N   0  0  0  0  0  0  0  0  0  0  0  0
    0.9823   -2.9157    1.9329 C   0  0  0  0  0  0  0  0  0  0  0  0
    1.1856   -2.7204    0.5444 C   0  0  0  0  0  0  0  0  0  0  0  0
    0.1095   -2.8133   -0.3704 C   0  0  0  0  0  0  0  0  0  0  0  0
   -1.1970   -3.0916    0.0840 C   0  0  0  0  0  0  0  0  0  0  0  0
   -1.3794   -3.3022    1.4551 C   0  0  0  0  0  0  0  0  0  0  0  0
   -0.3158   -3.2290    2.3524 C   0  0  0  0  0  0  0  0  0  0  0  0
   -0.8008   -3.5176    3.6062 C   0  0  0  0  0  0  0  0  0  0  0  0
   -0.1815   -3.5671    4.6621 O   0  0  0  0  0  0  0  0  0  0  0  0
   -2.1803   -3.7621    3.5126 N   0  0  0  0  0  0  0  0  0  0  0  0
   -2.9977   -4.5387    4.4717 C   0  0  0  0  0  0  0  0  0  0  0  0
   -3.4867   -3.6636    5.6531 C   0  0  0  0  0  0  0  0  0  0  0  0
   -2.5338   -3.7425    6.8667 C   0  0  0  0  0  0  0  0  0  0  0  0
   -2.2521   -5.1729    7.2565 C   0  0  0  0  0  0  0  0  0  0  0  0
   -2.1259   -5.5518    8.4111 O   0  0  0  0  0  0  0  0  0  0  0  0
   -2.1147   -6.1288    6.2474 N   0  0  0  0  0  0  0  0  0  0  0  0
   -2.3216   -5.8432    4.8904 C   0  0  0  0  0  0  0  0  0  0  0  0
   -2.1554   -6.7801    4.1203 O   0  0  0  0  0  0  0  0  0  0  0  0
   -2.5140   -3.6245    2.1592 C   0  0  0  0  0  0  0  0  0  0  0  0
   -3.6635   -3.7285    1.7443 O   0  0  0  0  0  0  0  0  0  0  0  0
    0.5538   -0.0287   -2.2255 H   0  0  0  0  0  0  0  0  0  0  0  0
   -0.9359    0.8600   -1.9337 H   0  0  0  0  0  0  0  0  0  0  0  0
   -1.3852    2.8927   -3.1612 H   0  0  0  0  0  0  0  0  0  0  0  0
   -1.5527    6.0023   -4.2908 H   0  0  0  0  0  0  0  0  0  0  0  0
   -2.5263    6.5669   -2.0587 H   0  0  0  0  0  0  0  0  0  0  0  0
   -5.1653    3.1664   -2.3488 H   0  0  0  0  0  0  0  0  0  0  0  0
   -2.4106    3.5839   -8.8594 H   0  0  0  0  0  0  0  0  0  0  0  0
    1.8213    2.9554   -7.1446 H   0  0  0  0  0  0  0  0  0  0  0  0
    3.9749    1.8020   -6.9430 H   0  0  0  0  0  0  0  0  0  0  0  0
    4.5826    0.5887   -4.8583 H   0  0  0  0  0  0  0  0  0  0  0  0
    2.9830    0.5441   -2.9317 H   0  0  0  0  0  0  0  0  0  0  0  0
    2.3309    2.3679   -1.3796 H   0  0  0  0  0  0  0  0  0  0  0  0
    3.9932    1.3066   -0.1174 H   0  0  0  0  0  0  0  0  0  0  0  0
    2.7528    0.1352    0.3876 H   0  0  0  0  0  0  0  0  0  0  0  0
    1.9607    1.7107    2.1448 H   0  0  0  0  0  0  0  0  0  0  0  0
    3.2208    2.8762    1.6828 H   0  0  0  0  0  0  0  0  0  0  0  0
    3.4800    2.1686    4.2379 H   0  0  0  0  0  0  0  0  0  0  0  0
    4.6881    0.8949    4.4574 H   0  0  0  0  0  0  0  0  0  0  0  0
    1.9366   -0.0090    3.5299 H   0  0  0  0  0  0  0  0  0  0  0  0
    2.0722    0.5947    5.1775 H   0  0  0  0  0  0  0  0  0  0  0  0
    4.9683   -1.2654    3.6364 H   0  0  0  0  0  0  0  0  0  0  0  0
    4.3877   -2.7640    4.3678 H   0  0  0  0  0  0  0  0  0  0  0  0
    3.1612   -1.2699    2.0026 H   0  0  0  0  0  0  0  0  0  0  0  0
    3.9209   -2.8712    1.9868 H   0  0  0  0  0  0  0  0  0  0  0  0
    1.7348   -2.9061    3.8407 H   0  0  0  0  0  0  0  0  0  0  0  0
    2.1779   -2.5122    0.1621 H   0  0  0  0  0  0  0  0  0  0  0  0
    0.2912   -2.6743   -1.4335 H   0  0  0  0  0  0  0  0  0  0  0  0
   -2.0374   -3.1630   -0.6014 H   0  0  0  0  0  0  0  0  0  0  0  0
   -3.9020   -4.8472    3.9300 H   0  0  0  0  0  0  0  0  0  0  0  0
   -4.4783   -4.0230    5.9643 H   0  0  0  0  0  0  0  0  0  0  0  0
   -3.6160   -2.6231    5.3271 H   0  0  0  0  0  0  0  0  0  0  0  0
   -1.5855   -3.2393    6.6501 H   0  0  0  0  0  0  0  0  0  0  0  0
   -2.9648   -3.2111    7.7227 H   0  0  0  0  0  0  0  0  0  0  0  0
   -1.8065   -7.0541    6.5026 H   0  0  0  0  0  0  0  0  0  0  0  0
  1  2  2  0  0  0  0
  2  3  1  0  0  0  0
  2 28  1  0  0  0  0
  3  4  1  0  0  0  0
  3 57  1  0  0  0  0
  3 58  1  0  0  0  0
  4  5  1  0  0  0  0
  4 27  1  0  0  0  0
  5  6  2  0  0  0  0
  5 59  1  0  0  0  0
  6  7  1  0  0  0  0
  6 22  1  0  0  0  0
  7  8  2  0  0  0  0
  7 20  1  0  0  0  0
  8  9  1  0  0  0  0
  8 17  1  0  0  0  0
  9 10  2  0  0  0  0
  9 15  1  0  0  0  0
 10 11  1  0  0  0  0
 10 60  1  0  0  0  0
 11 12  2  0  0  0  0
 11 61  1  0  0  0  0
 12 13  1  0  0  0  0
 12 14  1  0  0  0  0
 14 15  2  0  0  0  0
 14 62  1  0  0  0  0
 15 16  1  0  0  0  0
 17 18  2  0  0  0  0
 17 19  1  0  0  0  0
 19 20  1  0  0  0  0
 19 63  1  0  0  0  0
 20 21  2  0  0  0  0
 22 23  2  0  0  0  0
 22 27  1  0  0  0  0
 23 24  1  0  0  0  0
 23 64  1  0  0  0  0
 24 25  2  0  0  0  0
 24 65  1  0  0  0  0
 25 26  1  0  0  0  0
 25 66  1  0  0  0  0
 26 27  2  0  0  0  0
 26 67  1  0  0  0  0
 28 29  1  0  0  0  0
 28 68  1  0  0  0  0
 29 30  1  0  0  0  0
 29 69  1  0  0  0  0
 29 70  1  0  0  0  0
 30 31  1  0  0  0  0
 30 71  1  0  0  0  0
 30 72  1  0  0  0  0
 31 32  1  0  0  0  0
 32 33  1  0  0  0  0
 32 73  1  0  0  0  0
 32 74  1  0  0  0  0
 33 34  1  0  0  0  0
 33 75  1  0  0  0  0
 33 76  1  0  0  0  0
 34 35  1  0  0  0  0
 35 36  1  0  0  0  0
 35 77  1  0  0  0  0
 35 78  1  0  0  0  0
 36 37  1  0  0  0  0
 36 79  1  0  0  0  0
 36 80  1  0  0  0  0
 37 38  1  0  0  0  0
 37 81  1  0  0  0  0
 38 39  2  0  0  0  0
 38 43  1  0  0  0  0
 39 40  1  0  0  0  0
 39 82  1  0  0  0  0
 40 41  2  0  0  0  0
 40 83  1  0  0  0  0
 41 42  1  0  0  0  0
 41 84  1  0  0  0  0
 42 43  2  0  0  0  0
 42 55  1  0  0  0  0
 43 44  1  0  0  0  0
 44 45  2  0  0  0  0
 44 46  1  0  0  0  0
 46 47  1  0  0  0  0
 46 55  1  0  0  0  0
 47 48  1  0  0  0  0
 47 53  1  0  0  0  0
 47 85  1  0  0  0  0
 48 49  1  0  0  0  0
 48 86  1  0  0  0  0
 48 87  1  0  0  0  0
 49 50  1  0  0  0  0
 49 88  1  0  0  0  0
 49 89  1  0  0  0  0
 50 51  2  0  0  0  0
 50 52  1  0  0  0  0
 52 53  1  0  0  0  0
 52 90  1  0  0  0  0
 53 54  2  0  0  0  0
 55 56  2  0  0  0  0
M  END
$$$$
protac3895RUN2
  chem.cr 07102519423D
protac3895RUN2
 90 96  0  0  0  0  0  0  0  0999 V2000
    1.3446   -0.8730   -4.6628 O   0  0  0  0  0  0  0  0  0  0  0  0
    0.6596   -1.8637   -4.4604 C   0  0  0  0  0  0  0  0  0  0  0  0
   -0.5194   -2.2300   -5.3280 C   0  0  0  0  0  0  0  0  0  0  0  0
   -1.8081   -2.0210   -4.6531 N   0  0  0  0  0  0  0  0  0  0  0  0
   -2.4031   -0.7657   -4.5239 C   0  0  0  0  0  0  0  0  0  0  0  0
   -3.6489   -0.8878   -4.0135 C   0  0  0  0  0  0  0  0  0  0  0  0
   -4.4769    0.1151   -3.5845 C   0  0  0  0  0  0  0  0  0  0  0  0
   -4.3201    1.4430   -3.8046 C   0  0  0  0  0  0  0  0  0  0  0  0
   -3.3373    2.0492   -4.5631 C   0  0  0  0  0  0  0  0  0  0  0  0
   -3.5362    2.2070   -5.9484 C   0  0  0  0  0  0  0  0  0  0  0  0
   -2.5561    2.8282   -6.7423 C   0  0  0  0  0  0  0  0  0  0  0  0
   -1.3705    3.2939   -6.1531 C   0  0  0  0  0  0  0  0  0  0  0  0
   -0.1413    4.0670   -7.1456 Cl  0  0  0  0  0  0  0  0  0  0  0  0
   -1.1683    3.1515   -4.7707 C   0  0  0  0  0  0  0  0  0  0  0  0
   -2.1520    2.5403   -3.9733 C   0  0  0  0  0  0  0  0  0  0  0  0
   -1.8672    2.3660   -2.2431 Cl  0  0  0  0  0  0  0  0  0  0  0  0
   -5.2730    2.1593   -3.2070 C   0  0  0  0  0  0  0  0  0  0  0  0
   -5.5019    3.3592   -3.1351 O   0  0  0  0  0  0  0  0  0  0  0  0
   -6.1349    1.2890   -2.5679 N   0  0  0  0  0  0  0  0  0  0  0  0
   -5.5779    0.0312   -2.7940 C   0  0  0  0  0  0  0  0  0  0  0  0
   -6.1075   -0.8730   -2.1655 O   0  0  0  0  0  0  0  0  0  0  0  0
   -3.8905   -2.2760   -3.9572 C   0  0  0  0  0  0  0  0  0  0  0  0
   -5.0885   -3.0155   -3.8470 C   0  0  0  0  0  0  0  0  0  0  0  0
   -5.0475   -4.4239   -3.9399 C   0  0  0  0  0  0  0  0  0  0  0  0
   -3.8379   -5.0992   -4.2058 C   0  0  0  0  0  0  0  0  0  0  0  0
   -2.6618   -4.3652   -4.4322 C   0  0  0  0  0  0  0  0  0  0  0  0
   -2.7311   -2.9690   -4.3215 C   0  0  0  0  0  0  0  0  0  0  0  0
    1.2943   -2.9143   -3.7927 N   0  0  0  0  0  0  0  0  0  0  0  0
    0.6728   -3.5992   -2.6491 C   0  0  0  0  0  0  0  0  0  0  0  0
    0.9649   -2.9221   -1.2866 C   0  0  0  0  0  0  0  0  0  0  0  0
    2.3584   -3.0583   -0.9466 O   0  0  0  0  0  0  0  0  0  0  0  0
    3.2453   -2.0305   -1.4284 C   0  0  0  0  0  0  0  0  0  0  0  0
    4.6783   -2.3705   -0.9599 C   0  0  0  0  0  0  0  0  0  0  0  0
    5.0072   -1.6251    0.2241 O   0  0  0  0  0  0  0  0  0  0  0  0
    4.2861   -1.9415    1.4237 C   0  0  0  0  0  0  0  0  0  0  0  0
    4.8313   -0.9894    2.5078 C   0  0  0  0  0  0  0  0  0  0  0  0
    3.7767   -0.5417    3.4307 N   0  0  0  0  0  0  0  0  0  0  0  0
    2.9490    0.5491    3.1832 C   0  0  0  0  0  0  0  0  0  0  0  0
    2.6627    1.0139    1.8763 C   0  0  0  0  0  0  0  0  0  0  0  0
    1.8012    2.1175    1.6628 C   0  0  0  0  0  0  0  0  0  0  0  0
    1.2148    2.7904    2.7548 C   0  0  0  0  0  0  0  0  0  0  0  0
    1.5147    2.3332    4.0433 C   0  0  0  0  0  0  0  0  0  0  0  0
    2.3570    1.2394    4.2493 C   0  0  0  0  0  0  0  0  0  0  0  0
    2.4683    1.0515    5.6062 C   0  0  0  0  0  0  0  0  0  0  0  0
    3.0564    0.1628    6.2128 O   0  0  0  0  0  0  0  0  0  0  0  0
    1.6918    2.0119    6.2579 N   0  0  0  0  0  0  0  0  0  0  0  0
    1.8414    2.3802    7.6791 C   0  0  0  0  0  0  0  0  0  0  0  0
    0.6099    1.8942    8.4701 C   0  0  0  0  0  0  0  0  0  0  0  0
    0.7067    2.3635    9.9368 C   0  0  0  0  0  0  0  0  0  0  0  0
    0.9047    3.8583   10.0288 C   0  0  0  0  0  0  0  0  0  0  0  0
    0.5661    4.5236   10.9952 O   0  0  0  0  0  0  0  0  0  0  0  0
    1.6729    4.5006    9.0514 N   0  0  0  0  0  0  0  0  0  0  0  0
    2.1178    3.8686    7.8807 C   0  0  0  0  0  0  0  0  0  0  0  0
    2.9275    4.5024    7.2170 O   0  0  0  0  0  0  0  0  0  0  0  0
    1.1062    2.8131    5.2680 C   0  0  0  0  0  0  0  0  0  0  0  0
    0.1183    3.4997    5.5047 O   0  0  0  0  0  0  0  0  0  0  0  0
   -0.4973   -1.6073   -6.2293 H   0  0  0  0  0  0  0  0  0  0  0  0
   -0.4352   -3.2713   -5.6523 H   0  0  0  0  0  0  0  0  0  0  0  0
   -1.7945    0.1114   -4.7199 H   0  0  0  0  0  0  0  0  0  0  0  0
   -4.4570    1.8530   -6.4053 H   0  0  0  0  0  0  0  0  0  0  0  0
   -2.7180    2.9556   -7.8094 H   0  0  0  0  0  0  0  0  0  0  0  0
   -0.2504    3.5155   -4.3179 H   0  0  0  0  0  0  0  0  0  0  0  0
   -6.6412    1.5211   -1.7270 H   0  0  0  0  0  0  0  0  0  0  0  0
   -6.0541   -2.5393   -3.7580 H   0  0  0  0  0  0  0  0  0  0  0  0
   -5.9696   -4.9922   -3.8395 H   0  0  0  0  0  0  0  0  0  0  0  0
   -3.8302   -6.1827   -4.2931 H   0  0  0  0  0  0  0  0  0  0  0  0
   -1.7434   -4.8696   -4.7144 H   0  0  0  0  0  0  0  0  0  0  0  0
    2.3060   -2.8852   -3.8047 H   0  0  0  0  0  0  0  0  0  0  0  0
    1.0358   -4.6352   -2.6133 H   0  0  0  0  0  0  0  0  0  0  0  0
   -0.4153   -3.6342   -2.7936 H   0  0  0  0  0  0  0  0  0  0  0  0
    0.3610   -3.4286   -0.5220 H   0  0  0  0  0  0  0  0  0  0  0  0
    0.6560   -1.8686   -1.3043 H   0  0  0  0  0  0  0  0  0  0  0  0
    2.9492   -1.0428   -1.0515 H   0  0  0  0  0  0  0  0  0  0  0  0
    3.2454   -1.9822   -2.5213 H   0  0  0  0  0  0  0  0  0  0  0  0
    5.3770   -2.0923   -1.7583 H   0  0  0  0  0  0  0  0  0  0  0  0
    4.7822   -3.4501   -0.7909 H   0  0  0  0  0  0  0  0  0  0  0  0
    3.2078   -1.7830    1.2848 H   0  0  0  0  0  0  0  0  0  0  0  0
    4.4440   -2.9858    1.7226 H   0  0  0  0  0  0  0  0  0  0  0  0
    5.6292   -1.4961    3.0657 H   0  0  0  0  0  0  0  0  0  0  0  0
    5.2835   -0.1109    2.0288 H   0  0  0  0  0  0  0  0  0  0  0  0
    3.8415   -0.8234    4.4047 H   0  0  0  0  0  0  0  0  0  0  0  0
    3.1017    0.5238    1.0149 H   0  0  0  0  0  0  0  0  0  0  0  0
    1.5958    2.4537    0.6496 H   0  0  0  0  0  0  0  0  0  0  0  0
    0.5555    3.6429    2.6074 H   0  0  0  0  0  0  0  0  0  0  0  0
    2.7248    1.8566    8.0680 H   0  0  0  0  0  0  0  0  0  0  0  0
    0.5400    0.8000    8.4139 H   0  0  0  0  0  0  0  0  0  0  0  0
   -0.3029    2.3002    8.0092 H   0  0  0  0  0  0  0  0  0  0  0  0
   -0.2058    2.0848   10.4793 H   0  0  0  0  0  0  0  0  0  0  0  0
    1.5429    1.8655   10.4425 H   0  0  0  0  0  0  0  0  0  0  0  0
    1.8915    5.4773    9.1787 H   0  0  0  0  0  0  0  0  0  0  0  0
  1  2  2  0  0  0  0
  2  3  1  0  0  0  0
  2 28  1  0  0  0  0
  3  4  1  0  0  0  0
  3 57  1  0  0  0  0
  3 58  1  0  0  0  0
  4  5  1  0  0  0  0
  4 27  1  0  0  0  0
  5  6  2  0  0  0  0
  5 59  1  0  0  0  0
  6  7  1  0  0  0  0
  6 22  1  0  0  0  0
  7  8  2  0  0  0  0
  7 20  1  0  0  0  0
  8  9  1  0  0  0  0
  8 17  1  0  0  0  0
  9 10  2  0  0  0  0
  9 15  1  0  0  0  0
 10 11  1  0  0  0  0
 10 60  1  0  0  0  0
 11 12  2  0  0  0  0
 11 61  1  0  0  0  0
 12 13  1  0  0  0  0
 12 14  1  0  0  0  0
 14 15  2  0  0  0  0
 14 62  1  0  0  0  0
 15 16  1  0  0  0  0
 17 18  2  0  0  0  0
 17 19  1  0  0  0  0
 19 20  1  0  0  0  0
 19 63  1  0  0  0  0
 20 21  2  0  0  0  0
 22 23  2  0  0  0  0
 22 27  1  0  0  0  0
 23 24  1  0  0  0  0
 23 64  1  0  0  0  0
 24 25  2  0  0  0  0
 24 65  1  0  0  0  0
 25 26  1  0  0  0  0
 25 66  1  0  0  0  0
 26 27  2  0  0  0  0
 26 67  1  0  0  0  0
 28 29  1  0  0  0  0
 28 68  1  0  0  0  0
 29 30  1  0  0  0  0
 29 69  1  0  0  0  0
 29 70  1  0  0  0  0
 30 31  1  0  0  0  0
 30 71  1  0  0  0  0
 30 72  1  0  0  0  0
 31 32  1  0  0  0  0
 32 33  1  0  0  0  0
 32 73  1  0  0  0  0
 32 74  1  0  0  0  0
 33 34  1  0  0  0  0
 33 75  1  0  0  0  0
 33 76  1  0  0  0  0
 34 35  1  0  0  0  0
 35 36  1  0  0  0  0
 35 77  1  0  0  0  0
 35 78  1  0  0  0  0
 36 37  1  0  0  0  0
 36 79  1  0  0  0  0
 36 80  1  0  0  0  0
 37 38  1  0  0  0  0
 37 81  1  0  0  0  0
 38 39  2  0  0  0  0
 38 43  1  0  0  0  0
 39 40  1  0  0  0  0
 39 82  1  0  0  0  0
 40 41  2  0  0  0  0
 40 83  1  0  0  0  0
 41 42  1  0  0  0  0
 41 84  1  0  0  0  0
 42 43  2  0  0  0  0
 42 55  1  0  0  0  0
 43 44  1  0  0  0  0
 44 45  2  0  0  0  0
 44 46  1  0  0  0  0
 46 47  1  0  0  0  0
 46 55  1  0  0  0  0
 47 48  1  0  0  0  0
 47 53  1  0  0  0  0
 47 85  1  0  0  0  0
 48 49  1  0  0  0  0
 48 86  1  0  0  0  0
 48 87  1  0  0  0  0
 49 50  1  0  0  0  0
 49 88  1  0  0  0  0
 49 89  1  0  0  0  0
 50 51  2  0  0  0  0
 50 52  1  0  0  0  0
 52 53  1  0  0  0  0
 52 90  1  0  0  0  0
 53 54  2  0  0  0  0
 55 56  2  0  0  0  0
M  END
$$$$
